1

   Abaqus 2024                                  Date 05-Jun-2024   Time 17:48:23
   For use by UNIVERSITY OF SOUTH CAROLINA under license from Dassault Systemes or its subsidiary.



                         The Abaqus Software is a product of:

                           Dassault Systemes SIMULIA Corp.
                           1301 Atwood Avenue, Suite 101W
                              Johnston, RI 02919, USA
 


                   The Abaqus Software is available only under license
                   from Dassault Systemes or its subsidiary and may be
                   used or reproduced only in accordance with the terms
                   of such license.
 
                          On machine COCOEC-LV48 
                          you are authorized to run
                          Abaqus/Standard until 25-Mar-2025

                          Your site id is: 200000000026721 


 
                    For assistance or any other information you may
                    obtain contact information for your local office
                    from the world wide web at:

                      https://www.3ds.com/products-services/simulia/services-support/

 
                * * * * * * * * * * * * * * * * * * * * * * * * * * * * * * 
                *                                                         * 
                *                   *****************                     * 
                *                   *  N O T I C E  *                     * 
                *                   *****************                     * 
                *                                                         * 
                *                                                         * 
                *                       Abaqus 2024                       * 
                *                                                         * 
                *       BUILD ID: 2023_09_21-08.55.25 RELr426 190762      * 
                *                                                         * 
                *                                                         * 
                *  Please make sure you are using                         * 
                *  release Abaqus 2024 manuals                            * 
                *  plus the notes accompanying this release.              * 
                *                                                         * 
                *                                                         * 
                *                                                         * 
                *                                                         * 
                *                                                         * 
                *   This program may not be used for commercial purposes  * 
                *           without payment of a commercial fee.          * 
                *                                                         * 
                * * * * * * * * * * * * * * * * * * * * * * * * * * * * * * 


 



     PROCESSING PART, INSTANCE, AND ASSEMBLY INFORMATION
   *******************************************************


     END PROCESSING PART, INSTANCE, AND ASSEMBLY INFORMATION
   ***********************************************************




     OPTIONS BEING PROCESSED
   ***************************


  *Heading
  *Element, type=C3D8R
  *Elset, elset=ASSEMBLY_CONCRETEPATH-1_SET-1
  *Element, type=C3D8R
  *Elset, elset=ASSEMBLY_STEELBEAMSPAN-1_SET-1
  *Element, type=C3D8R
  *Elset, elset=ASSEMBLY_STEELBEAMSPAN-2_SET-1
  *Elset, elset=ASSEMBLY_SET-1
  *Elset, elset=ASSEMBLY_SET-2
  *Elset, elset=ASSEMBLY__M_SURF-3_S3
  *Elset, elset=ASSEMBLY__M_SURF-3_S4
  *Elset, elset=ASSEMBLY__M_SURF-3_S5
  *Elset, elset=ASSEMBLY__M_SURF-3_S6
  *Elset, elset=ASSEMBLY__M_SURF-4_S4
  *Elset, elset=ASSEMBLY__M_SURF-4_S5
  *Elset, elset=ASSEMBLY__M_SURF-4_S6
  *Elset, elset=ASSEMBLY__S_SURF-3_S6
  *Elset, elset=ASSEMBLY__S_SURF-4_S6
  *material, name=CONCRETE
  *density
  *elastic
  *material, name=STEEL
  *density
  *elastic
  *solidsection, elset=ASSEMBLY_CONCRETEPATH-1_SET-1, material=CONCRETE
  *solidsection, elset=ASSEMBLY_STEELBEAMSPAN-1_SET-1, material=STEEL
  *solidsection, elset=ASSEMBLY_STEELBEAMSPAN-2_SET-1, material=STEEL
  *solidsection, elset=ASSEMBLY_CONCRETEPATH-1_SET-1, material=CONCRETE
  *solidsection, elset=ASSEMBLY_STEELBEAMSPAN-1_SET-1, material=STEEL
  *solidsection, elset=ASSEMBLY_STEELBEAMSPAN-2_SET-1, material=STEEL
  *tie, name=ASSEMBLY_CONSTRAINT-2, adjust=YES
  *tie, name=ASSEMBLY_CONSTRAINT-3, adjust=YES
  *surface, type=ELEMENT, name=ASSEMBLY_M_SURF-3
  *surface, type=ELEMENT, name=ASSEMBLY_M_SURF-4
  *surface, type=ELEMENT, name=ASSEMBLY_S_SURF-3
  *surface, type=ELEMENT, name=ASSEMBLY_S_SURF-4
  *tie, name=ASSEMBLY_CONSTRAINT-2, adjust=YES
  *tie, name=ASSEMBLY_CONSTRAINT-3, adjust=YES
  *surface, type=ELEMENT, name=ASSEMBLY_M_SURF-3
  *surface, type=ELEMENT, name=ASSEMBLY_M_SURF-4
  *surface, type=ELEMENT, name=ASSEMBLY_S_SURF-3
  *surface, type=ELEMENT, name=ASSEMBLY_S_SURF-4
  *surface, type=ELEMENT, name=ASSEMBLY_M_SURF-3
  *surface, type=ELEMENT, name=ASSEMBLY_M_SURF-4
  *surface, type=ELEMENT, name=ASSEMBLY_S_SURF-3
  *surface, type=ELEMENT, name=ASSEMBLY_S_SURF-4
  *tie, name=ASSEMBLY_CONSTRAINT-2, adjust=YES
  *tie, name=ASSEMBLY_CONSTRAINT-3, adjust=YES
  *tie, name=ASSEMBLY_CONSTRAINT-2, adjust=YES
  *tie, name=ASSEMBLY_CONSTRAINT-3, adjust=YES
  *boundary
  *boundary
  *boundary
  *boundary
  *tie, name=ASSEMBLY_CONSTRAINT-2, adjust=YES

 ***WARNING: PLEASE MAKE SURE THAT THE MESH DENSITY OF THE SECONDARY SURFACE IN 
             THE TIE PAIR (ASSEMBLY_S_SURF-3,ASSEMBLY_M_SURF-3) IS FINER THAN 
             THE MAIN SURFACE.  THE ANALYSIS MAY RUN SLOWER, MAY YIELD 
             INACCURATE RESULTS, AND MAY REQUIRE MORE MEMORY IF THIS IS NOT THE 
             CASE.

 ***WARNING: FOR *TIE PAIR (ASSEMBLY_S_SURF-3-ASSEMBLY_M_SURF-3), ADJUSTED 
             NODES WITH VERY SMALL ADJUSTMENTS WERE NOT PRINTED. SPECIFY 
             *PREPRINT,MODEL=YES FOR COMPLETE PRINTOUT.
  *tie, name=ASSEMBLY_CONSTRAINT-3, adjust=YES

 ***WARNING: PLEASE MAKE SURE THAT THE MESH DENSITY OF THE SECONDARY SURFACE IN 
             THE TIE PAIR (ASSEMBLY_S_SURF-4,ASSEMBLY_M_SURF-4) IS FINER THAN 
             THE MAIN SURFACE.  THE ANALYSIS MAY RUN SLOWER, MAY YIELD 
             INACCURATE RESULTS, AND MAY REQUIRE MORE MEMORY IF THIS IS NOT THE 
             CASE.

 ***WARNING: FOR *TIE PAIR (ASSEMBLY_S_SURF-4-ASSEMBLY_M_SURF-4), ADJUSTED 
             NODES WITH VERY SMALL ADJUSTMENTS WERE NOT PRINTED. SPECIFY 
             *PREPRINT,MODEL=YES FOR COMPLETE PRINTOUT.
  *tie, name=ASSEMBLY_CONSTRAINT-2, adjust=YES
  *tie, name=ASSEMBLY_CONSTRAINT-3, adjust=YES
  *tie, name=ASSEMBLY_CONSTRAINT-2, adjust=YES
  *tie, name=ASSEMBLY_CONSTRAINT-3, adjust=YES
  *surface, type=ELEMENT, name=ASSEMBLY_M_SURF-3
  *surface, type=ELEMENT, name=ASSEMBLY_M_SURF-4
  *surface, type=ELEMENT, name=ASSEMBLY_S_SURF-3
  *surface, type=ELEMENT, name=ASSEMBLY_S_SURF-4
  *tie, name=ASSEMBLY_CONSTRAINT-2, adjust=YES
  *tie, name=ASSEMBLY_CONSTRAINT-3, adjust=YES
  *output, field, variable=PRESELECT
  *output, history, variable=PRESELECT
  *output, field, variable=PRESELECT
  *output, history, variable=PRESELECT
  *output, field, variable=PRESELECT
  *output, history, variable=PRESELECT
  
                               E L E M E N T   Q U A L I T Y  C H E C K S        
  
  
 ***NOTES: DISTORTED ISOPARAMETRIC ELEMENTS: ANGLE BETWEEN ISOPARAMETRIC LINES 
           IS LESS THAN 45 DEGREES OR GREATER THAN 135 DEGREES.
  
           TETRAHEDRAL QUALITY MEASURE: VOLUME OF TETRAHEDRON DIVIDED BY THE 
           VOLUME OF EQUILATERAL TETRAHEDRON WITH SAME CIRCUMSPHERE RADIUS; 
           0 FOR DEGENERATE TETRAHEDRON AND 1 FOR EQUILATERIAL TETRAHEDRON. IT 
           IS RECOMMENDED THAT THE TETRAHEDRAL QUALITY MEASURE BE GREATER THAN 
           0.02, THE MIN INTERIOR (DIHEDRAL) ANGLE BE GREATER THAN 10 DEGREES, 
           AND THE MAX INTERIOR (DIHEDRAL) ANGLE BE LESS THAN 160 DEGREES. 
  
           MODIFIED TETRAHEDRAL QUALITY MEASURE: ANGLES BETWEEN THE TWO LINE 
           SEGMENTS ON EACH EDGE; THE EDGES OF MODIFIED TETRAHEDRAL SHOULD BE 
           AS STRAIGHT AS POSSIBLE. IT IS RECOMMENDED THAT THE ANGLE BETWEEN 
           THE TWO LINE SEGMENTS ON EACH EDGE IS BETWEEN 160 AND 180 DEGREES. 
  
           TRIANGULAR QUALITY MEASURE: AREA OF TRIANGLE DIVIDED BY THE AREA OF 
           EQUILATERAL TRIANGLE WITH SAME CIRCUMCIRCLE RADIUS; 0 FOR DEGENERATE 
           TRIANGLE AND 1 FOR EQUILATERAL TRIANGLE. IT IS RECOMMENDED THAT THE
           TRIANGULAR QUALITY MEASURE BE GREATER THAN 0.01, THE MIN INTERIOR 
           ANGLE BE GREATER THAN 10 DEGREES, AND THE MAX INTERIOR ANGLE BE LESS 
           THAN 160 DEGREES. 
  
           NODAL ADJUSTMENTS ARISING FROM CONTACT INTERACTIONS AND/OR TIE 
           CONSTRAINTS CAN CAUSE SEVERE ELEMENT DISTORTION. IT MAY BE NECESSARY 
           TO REMESH IN ORDER TO REDUCE THE AMOUNT OF ADJUSTMENT. 

 ***WARNING: 7222 elements are distorted. Either the isoparametric angles are 
             out of the suggested limits or the triangular or tetrahedral 
             quality measure is bad. The elements have been identified in 
             element set WarnElemDistorted.
  
 --------------------------------------------------------------------------------
 Distorted isoparametric elements
  
          Element           Min/max angle   Adjusted nodes 
 ------------------------- ---------------- -------------- 
          CONCRETEPATH-1.6          31.3509       NO       
         CONCRETEPATH-1.10          26.6225       NO       
         CONCRETEPATH-1.18          31.3509       NO       
         CONCRETEPATH-1.22          26.6225       NO       
         CONCRETEPATH-1.30          31.3509       NO       
         CONCRETEPATH-1.34          26.6225       NO       
         CONCRETEPATH-1.42          31.3509       NO       
         CONCRETEPATH-1.46          26.6225       NO       
         CONCRETEPATH-1.54          31.3509       NO       
         CONCRETEPATH-1.58          26.6225       NO       
         CONCRETEPATH-1.66          31.3509       NO       
         CONCRETEPATH-1.70          26.6225       NO       
         CONCRETEPATH-1.78          31.3509       NO       
         CONCRETEPATH-1.82          26.6225       NO       
         CONCRETEPATH-1.90          31.3509       NO       
         CONCRETEPATH-1.94          26.6225       NO       
        CONCRETEPATH-1.102          31.3509       NO       
        CONCRETEPATH-1.106          26.6225       NO       
        CONCRETEPATH-1.114          31.3509       NO       
        CONCRETEPATH-1.118          26.6225       NO       
        CONCRETEPATH-1.126          31.3509       NO       
        CONCRETEPATH-1.130          26.6225       NO       
        CONCRETEPATH-1.138          31.3509       NO       
        CONCRETEPATH-1.142          26.6225       NO       
        CONCRETEPATH-1.150          31.3509       NO       
        CONCRETEPATH-1.154          26.6225       NO       
        CONCRETEPATH-1.162          31.3509       NO       
        CONCRETEPATH-1.166          26.6225       NO       
        CONCRETEPATH-1.174           31.351       NO       
        CONCRETEPATH-1.178          26.6225       NO       
        CONCRETEPATH-1.186           31.351       NO       
        CONCRETEPATH-1.190          26.6225       NO       
        CONCRETEPATH-1.198           31.351       NO       
        CONCRETEPATH-1.202          26.6225       NO       
        CONCRETEPATH-1.210           31.351       NO       
        CONCRETEPATH-1.214          26.6225       NO       
        CONCRETEPATH-1.222           31.351       NO       
        CONCRETEPATH-1.226          26.6226       NO       
        CONCRETEPATH-1.234           31.351       NO       
        CONCRETEPATH-1.238          26.6226       NO       
        CONCRETEPATH-1.246          31.9875       NO       
        CONCRETEPATH-1.250          27.5108       NO       
        CONCRETEPATH-1.258          31.3513       NO       
        CONCRETEPATH-1.262          26.8056       NO       
        CONCRETEPATH-1.270          32.0238       NO       
        CONCRETEPATH-1.274          27.5894       NO       
        CONCRETEPATH-1.282           31.351       NO       
        CONCRETEPATH-1.286          26.6226       NO       
        CONCRETEPATH-1.294           31.351       NO       
        CONCRETEPATH-1.298          26.6225       NO       
        CONCRETEPATH-1.306           31.351       NO       
        CONCRETEPATH-1.310          26.6225       NO       
        CONCRETEPATH-1.318          31.3509       NO       
        CONCRETEPATH-1.322          26.6225       NO       
        CONCRETEPATH-1.330          31.3509       NO       
        CONCRETEPATH-1.334          26.6225       NO       
        CONCRETEPATH-1.342          31.3509       NO       
        CONCRETEPATH-1.346          26.6225       NO       
        CONCRETEPATH-1.354          31.3509       NO       
        CONCRETEPATH-1.358          26.6225       NO       
        CONCRETEPATH-1.366          31.3509       NO       
        CONCRETEPATH-1.370          26.6225       NO       
        CONCRETEPATH-1.378          31.3509       NO       
        CONCRETEPATH-1.382          26.6225       NO       
        CONCRETEPATH-1.390           31.351       NO       
        CONCRETEPATH-1.394          26.6225       NO       
        CONCRETEPATH-1.402          31.3511       NO       
        CONCRETEPATH-1.406          26.6225       NO       
        CONCRETEPATH-1.414          31.3517       NO       
        CONCRETEPATH-1.418          26.6225       NO       
        CONCRETEPATH-1.426          31.3533       NO       
        CONCRETEPATH-1.430          26.6226       NO       
        CONCRETEPATH-1.438          31.3576       NO       
        CONCRETEPATH-1.442          26.6232       NO       
        CONCRETEPATH-1.450          31.3672       NO       
        CONCRETEPATH-1.454          26.6253       NO       
        CONCRETEPATH-1.462          31.3859       NO       
        CONCRETEPATH-1.466          26.6296       NO       
        CONCRETEPATH-1.474          31.3922       NO       
        CONCRETEPATH-1.478          26.6336       NO       
        CONCRETEPATH-1.486          31.3919       NO       
        CONCRETEPATH-1.490          26.6373       NO       
        CONCRETEPATH-1.498          31.3821       NO       
        CONCRETEPATH-1.502          26.6433       NO       
        CONCRETEPATH-1.510          31.3551       NO       
        CONCRETEPATH-1.514          26.6288       NO       
         STEELBEAMSPAN-1.2          23.1826       NO       
         STEELBEAMSPAN-1.5          24.6532       NO       
         STEELBEAMSPAN-1.8          24.0888       NO       
        STEELBEAMSPAN-1.10          38.7535       NO       
        STEELBEAMSPAN-1.17          25.4996       NO       
        STEELBEAMSPAN-1.18          19.7931       NO       
        STEELBEAMSPAN-1.19          35.0486       NO       
        STEELBEAMSPAN-1.21          29.4718       NO       
        STEELBEAMSPAN-1.27          23.1826       NO       
        STEELBEAMSPAN-1.30          24.6532       NO       
        STEELBEAMSPAN-1.33          24.0888       NO       
        STEELBEAMSPAN-1.35          38.7535       NO       
        STEELBEAMSPAN-1.42          25.4996       NO       
        STEELBEAMSPAN-1.43          19.7931       NO       
        STEELBEAMSPAN-1.44          35.0486       NO       
        STEELBEAMSPAN-1.46          29.4718       NO       
        STEELBEAMSPAN-1.52          23.1826       NO       
        STEELBEAMSPAN-1.55          24.6532       NO       
        STEELBEAMSPAN-1.58          24.0888       NO       
        STEELBEAMSPAN-1.60          38.7535       NO       
        STEELBEAMSPAN-1.67          25.4996       NO       
        STEELBEAMSPAN-1.68          19.7931       NO       
        STEELBEAMSPAN-1.69          35.0486       NO       
        STEELBEAMSPAN-1.71          29.4718       NO       
        STEELBEAMSPAN-1.77          23.1826       NO       
        STEELBEAMSPAN-1.80          24.6532       NO       
        STEELBEAMSPAN-1.83          24.0888       NO       
        STEELBEAMSPAN-1.85          38.7535       NO       
        STEELBEAMSPAN-1.92          25.4996       NO       
        STEELBEAMSPAN-1.93          19.7931       NO       
        STEELBEAMSPAN-1.94          35.0486       NO       
        STEELBEAMSPAN-1.96          29.4718       NO       
       STEELBEAMSPAN-1.102          23.1826       NO       
       STEELBEAMSPAN-1.105          24.6532       NO       
       STEELBEAMSPAN-1.108          24.0888       NO       
       STEELBEAMSPAN-1.110          38.7535       NO       
       STEELBEAMSPAN-1.117          25.4996       NO       
       STEELBEAMSPAN-1.118          19.7931       NO       
       STEELBEAMSPAN-1.119          35.0486       NO       
       STEELBEAMSPAN-1.121          29.4718       NO       
       STEELBEAMSPAN-1.127          23.1826       NO       
       STEELBEAMSPAN-1.130          24.6532       NO       
       STEELBEAMSPAN-1.133          24.0888       NO       
       STEELBEAMSPAN-1.135          38.7535       NO       
       STEELBEAMSPAN-1.142          25.4996       NO       
       STEELBEAMSPAN-1.143          19.7931       NO       
       STEELBEAMSPAN-1.144          35.0486       NO       
       STEELBEAMSPAN-1.146          29.4718       NO       
       STEELBEAMSPAN-1.152          23.1826       NO       
       STEELBEAMSPAN-1.155          24.6532       NO       
       STEELBEAMSPAN-1.158          24.0888       NO       
       STEELBEAMSPAN-1.160          38.7535       NO       
       STEELBEAMSPAN-1.167          25.4996       NO       
       STEELBEAMSPAN-1.168          19.7931       NO       
       STEELBEAMSPAN-1.169          35.0486       NO       
       STEELBEAMSPAN-1.171          29.4718       NO       
       STEELBEAMSPAN-1.177          23.1826       NO       
       STEELBEAMSPAN-1.180          24.6532       NO       
       STEELBEAMSPAN-1.183          24.0888       NO       
       STEELBEAMSPAN-1.185          38.7535       NO       
       STEELBEAMSPAN-1.192          25.4996       NO       
       STEELBEAMSPAN-1.193          19.7931       NO       
       STEELBEAMSPAN-1.194          35.0486       NO       
       STEELBEAMSPAN-1.196          29.4718       NO       
       STEELBEAMSPAN-1.202          23.1826       NO       
       STEELBEAMSPAN-1.205          24.6532       NO       
       STEELBEAMSPAN-1.208          24.0888       NO       
       STEELBEAMSPAN-1.210          38.7535       NO       
       STEELBEAMSPAN-1.217          25.4996       NO       
       STEELBEAMSPAN-1.218          19.7932       NO       
       STEELBEAMSPAN-1.219          35.0486       NO       
       STEELBEAMSPAN-1.221          29.4718       NO       
       STEELBEAMSPAN-1.227          23.1826       NO       
       STEELBEAMSPAN-1.230          24.6532       NO       
       STEELBEAMSPAN-1.233          24.0888       NO       
       STEELBEAMSPAN-1.235          38.7535       NO       
       STEELBEAMSPAN-1.242          25.4996       NO       
       STEELBEAMSPAN-1.243          19.7932       NO       
       STEELBEAMSPAN-1.244          35.0486       NO       
       STEELBEAMSPAN-1.246          29.4718       NO       
       STEELBEAMSPAN-1.252          23.1826       NO       
       STEELBEAMSPAN-1.255          24.6532       NO       
       STEELBEAMSPAN-1.258          24.0888       NO       
       STEELBEAMSPAN-1.260          38.7535       NO       
       STEELBEAMSPAN-1.267          25.4996       NO       
       STEELBEAMSPAN-1.268          19.7932       NO       
       STEELBEAMSPAN-1.269          35.0486       NO       
       STEELBEAMSPAN-1.271          29.4718       NO       
       STEELBEAMSPAN-1.277          23.1826       NO       
       STEELBEAMSPAN-1.280          24.6532       NO       
       STEELBEAMSPAN-1.283          24.0888       NO       
       STEELBEAMSPAN-1.285          38.7535       NO       
       STEELBEAMSPAN-1.292          25.4996       NO       
       STEELBEAMSPAN-1.293          19.7932       NO       
       STEELBEAMSPAN-1.294          35.0486       NO       
       STEELBEAMSPAN-1.296          29.4718       NO       
       STEELBEAMSPAN-1.302          23.1826       NO       
       STEELBEAMSPAN-1.305          24.6532       NO       
       STEELBEAMSPAN-1.308          24.0888       NO       
       STEELBEAMSPAN-1.310          38.7535       NO       
       STEELBEAMSPAN-1.317          25.4996       NO       
       STEELBEAMSPAN-1.318          19.7932       NO       
       STEELBEAMSPAN-1.319          35.0486       NO       
       STEELBEAMSPAN-1.321          29.4718       NO       
       STEELBEAMSPAN-1.327          23.1826       NO       
       STEELBEAMSPAN-1.330          24.6532       NO       
       STEELBEAMSPAN-1.333          24.0888       NO       
       STEELBEAMSPAN-1.335          38.7535       NO       
       STEELBEAMSPAN-1.342          25.4996       NO       
       STEELBEAMSPAN-1.343          19.7932       NO       
       STEELBEAMSPAN-1.344          35.0486       NO       
       STEELBEAMSPAN-1.346          29.4718       NO       
       STEELBEAMSPAN-1.352          23.1826       NO       
       STEELBEAMSPAN-1.355          24.6532       NO       
       STEELBEAMSPAN-1.358          24.0888       NO       
       STEELBEAMSPAN-1.360          38.7535       NO       
       STEELBEAMSPAN-1.367          25.4996       NO       
       STEELBEAMSPAN-1.368          19.7932       NO       
       STEELBEAMSPAN-1.369          35.0486       NO       
       STEELBEAMSPAN-1.371          29.4718       NO       
       STEELBEAMSPAN-1.377          23.1826       NO       
       STEELBEAMSPAN-1.380          24.6532       NO       
       STEELBEAMSPAN-1.383          24.0888       NO       
       STEELBEAMSPAN-1.385          38.7535       NO       
       STEELBEAMSPAN-1.392          25.4996       NO       
       STEELBEAMSPAN-1.393          19.7932       NO       
       STEELBEAMSPAN-1.394          35.0486       NO       
       STEELBEAMSPAN-1.396          29.4718       NO       
       STEELBEAMSPAN-1.402          23.1826       NO       
       STEELBEAMSPAN-1.405          24.6532       NO       
       STEELBEAMSPAN-1.408          24.0888       NO       
       STEELBEAMSPAN-1.410          38.7535       NO       
       STEELBEAMSPAN-1.417          25.4996       NO       
       STEELBEAMSPAN-1.418          19.7932       NO       
       STEELBEAMSPAN-1.419          35.0486       NO       
       STEELBEAMSPAN-1.421          29.4718       NO       
       STEELBEAMSPAN-1.427          23.1826       NO       
       STEELBEAMSPAN-1.430          24.6532       NO       
       STEELBEAMSPAN-1.433          24.0888       NO       
       STEELBEAMSPAN-1.435          38.7535       NO       
       STEELBEAMSPAN-1.442          25.4996       NO       
       STEELBEAMSPAN-1.443          19.7932       NO       
       STEELBEAMSPAN-1.444          35.0486       NO       
       STEELBEAMSPAN-1.446          29.4718       NO       
       STEELBEAMSPAN-1.452          23.1826       NO       
       STEELBEAMSPAN-1.455          24.6532       NO       
       STEELBEAMSPAN-1.458          24.0888       NO       
       STEELBEAMSPAN-1.460          38.7535       NO       
       STEELBEAMSPAN-1.467          25.4996       NO       
       STEELBEAMSPAN-1.468          19.7932       NO       
       STEELBEAMSPAN-1.469          35.0486       NO       
       STEELBEAMSPAN-1.471          29.4718       NO       
       STEELBEAMSPAN-1.477          23.1826       NO       
       STEELBEAMSPAN-1.480          24.6532       NO       
       STEELBEAMSPAN-1.483          24.0888       NO       
       STEELBEAMSPAN-1.485          38.7535       NO       
       STEELBEAMSPAN-1.492          25.4996       NO       
       STEELBEAMSPAN-1.493          19.7932       NO       
       STEELBEAMSPAN-1.494          35.0486       NO       
       STEELBEAMSPAN-1.496          29.4718       NO       
       STEELBEAMSPAN-1.502          23.1826       NO       
       STEELBEAMSPAN-1.505          24.6532       NO       
       STEELBEAMSPAN-1.508          24.0888       NO       
       STEELBEAMSPAN-1.510          38.7535       NO       
       STEELBEAMSPAN-1.517          25.4996       NO       
       STEELBEAMSPAN-1.518          19.7932       NO       
       STEELBEAMSPAN-1.519          35.0486       NO       
       STEELBEAMSPAN-1.521          29.4718       NO       
       STEELBEAMSPAN-1.527          23.1826       NO       
       STEELBEAMSPAN-1.530          24.6532       NO       
       STEELBEAMSPAN-1.533          24.0888       NO       
       STEELBEAMSPAN-1.535          38.7535       NO       
       STEELBEAMSPAN-1.542          25.4996       NO       
       STEELBEAMSPAN-1.543          19.7932       NO       
       STEELBEAMSPAN-1.544          35.0486       NO       
       STEELBEAMSPAN-1.546          29.4718       NO       
       STEELBEAMSPAN-1.552          23.1826       NO       
       STEELBEAMSPAN-1.555          24.6532       NO       
       STEELBEAMSPAN-1.558          24.0888       NO       
       STEELBEAMSPAN-1.560          38.7535       NO       
       STEELBEAMSPAN-1.567          25.4996       NO       
       STEELBEAMSPAN-1.568          19.7932       NO       
       STEELBEAMSPAN-1.569          35.0486       NO       
       STEELBEAMSPAN-1.571          29.4718       NO       
       STEELBEAMSPAN-1.577          23.1826       NO       
       STEELBEAMSPAN-1.580          24.6532       NO       
       STEELBEAMSPAN-1.583          24.0888       NO       
       STEELBEAMSPAN-1.585          38.7535       NO       
       STEELBEAMSPAN-1.592          25.4996       NO       
       STEELBEAMSPAN-1.593          19.7932       NO       
       STEELBEAMSPAN-1.594          35.0486       NO       
       STEELBEAMSPAN-1.596          29.4718       NO       
       STEELBEAMSPAN-1.602          23.1826       NO       
       STEELBEAMSPAN-1.605          24.6532       NO       
       STEELBEAMSPAN-1.608          24.0888       NO       
       STEELBEAMSPAN-1.610          38.7535       NO       
       STEELBEAMSPAN-1.617          25.4996       NO       
       STEELBEAMSPAN-1.618          19.7932       NO       
       STEELBEAMSPAN-1.619          35.0486       NO       
       STEELBEAMSPAN-1.621          29.4718       NO       
       STEELBEAMSPAN-1.627          23.1826       NO       
       STEELBEAMSPAN-1.630          24.6532       NO       
       STEELBEAMSPAN-1.633          24.0888       NO       
       STEELBEAMSPAN-1.635          38.7535       NO       
       STEELBEAMSPAN-1.642          25.4996       NO       
       STEELBEAMSPAN-1.643          19.7932       NO       
       STEELBEAMSPAN-1.644          35.0486       NO       
       STEELBEAMSPAN-1.646          29.4718       NO       
       STEELBEAMSPAN-1.652          23.1826       NO       
       STEELBEAMSPAN-1.655          24.6532       NO       
       STEELBEAMSPAN-1.658          24.0888       NO       
       STEELBEAMSPAN-1.660          38.7535       NO       
       STEELBEAMSPAN-1.667          25.4996       NO       
       STEELBEAMSPAN-1.668          19.7932       NO       
       STEELBEAMSPAN-1.669          35.0486       NO       
       STEELBEAMSPAN-1.671          29.4719       NO       
       STEELBEAMSPAN-1.677          23.1826       NO       
       STEELBEAMSPAN-1.680          24.6532       NO       
       STEELBEAMSPAN-1.683          24.0888       NO       
       STEELBEAMSPAN-1.685          38.7535       NO       
       STEELBEAMSPAN-1.692          25.4996       NO       
       STEELBEAMSPAN-1.693          19.7932       NO       
       STEELBEAMSPAN-1.694          35.0486       NO       
       STEELBEAMSPAN-1.696          29.4719       NO       
       STEELBEAMSPAN-1.702          23.1826       NO       
       STEELBEAMSPAN-1.705          24.6532       NO       
       STEELBEAMSPAN-1.708          24.0888       NO       
       STEELBEAMSPAN-1.710          38.7535       NO       
       STEELBEAMSPAN-1.717          25.4996       NO       
       STEELBEAMSPAN-1.718          19.7932       NO       
       STEELBEAMSPAN-1.719          35.0486       NO       
       STEELBEAMSPAN-1.721          29.4719       NO       
       STEELBEAMSPAN-1.727          23.1826       NO       
       STEELBEAMSPAN-1.730          24.6532       NO       
       STEELBEAMSPAN-1.733          24.0888       NO       
       STEELBEAMSPAN-1.735          38.7535       NO       
       STEELBEAMSPAN-1.742          25.4996       NO       
       STEELBEAMSPAN-1.743          19.7932       NO       
       STEELBEAMSPAN-1.744          35.0486       NO       
       STEELBEAMSPAN-1.746          29.4719       NO       
       STEELBEAMSPAN-1.752          23.1826       NO       
       STEELBEAMSPAN-1.755          24.6532       NO       
       STEELBEAMSPAN-1.758          24.0888       NO       
       STEELBEAMSPAN-1.760          38.7536       NO       
       STEELBEAMSPAN-1.767          25.4996       NO       
       STEELBEAMSPAN-1.768          19.7932       NO       
       STEELBEAMSPAN-1.769          35.0486       NO       
       STEELBEAMSPAN-1.771          29.4719       NO       
       STEELBEAMSPAN-1.777          23.1826       NO       
       STEELBEAMSPAN-1.780          24.6532       NO       
       STEELBEAMSPAN-1.783          24.0888       NO       
       STEELBEAMSPAN-1.785          38.7536       NO       
       STEELBEAMSPAN-1.792          25.4996       NO       
       STEELBEAMSPAN-1.793          19.7932       NO       
       STEELBEAMSPAN-1.794          35.0486       NO       
       STEELBEAMSPAN-1.796          29.4719       NO       
       STEELBEAMSPAN-1.802          23.1826       NO       
       STEELBEAMSPAN-1.805          24.6532       NO       
       STEELBEAMSPAN-1.808          24.0888       NO       
       STEELBEAMSPAN-1.810          38.7536       NO       
       STEELBEAMSPAN-1.817          25.4996       NO       
       STEELBEAMSPAN-1.818          19.7932       NO       
       STEELBEAMSPAN-1.819          35.0486       NO       
       STEELBEAMSPAN-1.821          29.4719       NO       
       STEELBEAMSPAN-1.827          23.1826       NO       
       STEELBEAMSPAN-1.830          24.6532       NO       
       STEELBEAMSPAN-1.833          24.0888       NO       
       STEELBEAMSPAN-1.835          38.7536       NO       
       STEELBEAMSPAN-1.842          25.4996       NO       
       STEELBEAMSPAN-1.843          19.7932       NO       
       STEELBEAMSPAN-1.844          35.0486       NO       
       STEELBEAMSPAN-1.846          29.4719       NO       
       STEELBEAMSPAN-1.852          23.1826       NO       
       STEELBEAMSPAN-1.855          24.6532       NO       
       STEELBEAMSPAN-1.858          24.0888       NO       
       STEELBEAMSPAN-1.860          38.7536       NO       
       STEELBEAMSPAN-1.867          25.4996       NO       
       STEELBEAMSPAN-1.868          19.7932       NO       
       STEELBEAMSPAN-1.869          35.0486       NO       
       STEELBEAMSPAN-1.871          29.4719       NO       
       STEELBEAMSPAN-1.877          23.1826       NO       
       STEELBEAMSPAN-1.880          24.6532       NO       
       STEELBEAMSPAN-1.883          24.0888       NO       
       STEELBEAMSPAN-1.885          38.7536       NO       
       STEELBEAMSPAN-1.892          25.4996       NO       
       STEELBEAMSPAN-1.893          19.7932       NO       
       STEELBEAMSPAN-1.894          35.0486       NO       
       STEELBEAMSPAN-1.896          29.4719       NO       
       STEELBEAMSPAN-1.902          23.1826       NO       
       STEELBEAMSPAN-1.905          24.6532       NO       
       STEELBEAMSPAN-1.908          24.0888       NO       
       STEELBEAMSPAN-1.910          38.7536       NO       
       STEELBEAMSPAN-1.917          25.4996       NO       
       STEELBEAMSPAN-1.918          19.7932       NO       
       STEELBEAMSPAN-1.919          35.0486       NO       
       STEELBEAMSPAN-1.921          29.4719       NO       
       STEELBEAMSPAN-1.927          23.1826       NO       
       STEELBEAMSPAN-1.930          24.6532       NO       
       STEELBEAMSPAN-1.933          24.0888       NO       
       STEELBEAMSPAN-1.935          38.7536       NO       
       STEELBEAMSPAN-1.942          25.4996       NO       
       STEELBEAMSPAN-1.943          19.7932       NO       
       STEELBEAMSPAN-1.944          35.0486       NO       
       STEELBEAMSPAN-1.946          29.4719       NO       
       STEELBEAMSPAN-1.952          23.1826       NO       
       STEELBEAMSPAN-1.955          24.6532       NO       
       STEELBEAMSPAN-1.958          24.0888       NO       
       STEELBEAMSPAN-1.960          38.7536       NO       
       STEELBEAMSPAN-1.967          25.4996       NO       
       STEELBEAMSPAN-1.968          19.7932       NO       
       STEELBEAMSPAN-1.969          35.0486       NO       
       STEELBEAMSPAN-1.971          29.4719       NO       
       STEELBEAMSPAN-1.977          23.1826       NO       
       STEELBEAMSPAN-1.980          24.6532       NO       
       STEELBEAMSPAN-1.983          24.0888       NO       
       STEELBEAMSPAN-1.985          38.7536       NO       
       STEELBEAMSPAN-1.992          25.4996       NO       
       STEELBEAMSPAN-1.993          19.7932       NO       
       STEELBEAMSPAN-1.994          35.0486       NO       
       STEELBEAMSPAN-1.996          29.4719       NO       
      STEELBEAMSPAN-1.1002          23.1826       NO       
      STEELBEAMSPAN-1.1005          24.6533       NO       
      STEELBEAMSPAN-1.1008          24.0888       NO       
      STEELBEAMSPAN-1.1010          38.7536       NO       
      STEELBEAMSPAN-1.1017          25.4996       NO       
      STEELBEAMSPAN-1.1018          19.7932       NO       
      STEELBEAMSPAN-1.1019          35.0486       NO       
      STEELBEAMSPAN-1.1021          29.4719       NO       
      STEELBEAMSPAN-1.1027          23.1826       NO       
      STEELBEAMSPAN-1.1030          24.6533       NO       
      STEELBEAMSPAN-1.1033          24.0888       NO       
      STEELBEAMSPAN-1.1035          38.7536       NO       
      STEELBEAMSPAN-1.1042          25.4996       NO       
      STEELBEAMSPAN-1.1043          19.7933       NO       
      STEELBEAMSPAN-1.1044          35.0486       NO       
      STEELBEAMSPAN-1.1046          29.4719       NO       
      STEELBEAMSPAN-1.1052          23.1826       NO       
      STEELBEAMSPAN-1.1055          24.6533       NO       
      STEELBEAMSPAN-1.1058          24.0888       NO       
      STEELBEAMSPAN-1.1060          38.7536       NO       
      STEELBEAMSPAN-1.1067          25.4996       NO       
      STEELBEAMSPAN-1.1068          19.7933       NO       
      STEELBEAMSPAN-1.1069          35.0486       NO       
      STEELBEAMSPAN-1.1071          29.4719       NO       
      STEELBEAMSPAN-1.1077          23.1827       NO       
      STEELBEAMSPAN-1.1080          24.6533       NO       
      STEELBEAMSPAN-1.1083          24.0888       NO       
      STEELBEAMSPAN-1.1085          38.7536       NO       
      STEELBEAMSPAN-1.1092          25.4996       NO       
      STEELBEAMSPAN-1.1093          19.7933       NO       
      STEELBEAMSPAN-1.1094          35.0486       NO       
      STEELBEAMSPAN-1.1096           29.472       NO       
      STEELBEAMSPAN-1.1102          23.1827       NO       
      STEELBEAMSPAN-1.1105          24.6533       NO       
      STEELBEAMSPAN-1.1108          24.0888       NO       
      STEELBEAMSPAN-1.1110          38.7536       NO       
      STEELBEAMSPAN-1.1117          25.4996       NO       
      STEELBEAMSPAN-1.1118          19.7933       NO       
      STEELBEAMSPAN-1.1119          35.0486       NO       
      STEELBEAMSPAN-1.1121           29.472       NO       
      STEELBEAMSPAN-1.1127          23.1827       NO       
      STEELBEAMSPAN-1.1130          24.6533       NO       
      STEELBEAMSPAN-1.1133          24.0888       NO       
      STEELBEAMSPAN-1.1135          38.7536       NO       
      STEELBEAMSPAN-1.1142          25.4996       NO       
      STEELBEAMSPAN-1.1143          19.7933       NO       
      STEELBEAMSPAN-1.1144          35.0486       NO       
      STEELBEAMSPAN-1.1146           29.472       NO       
      STEELBEAMSPAN-1.1152          23.1827       NO       
      STEELBEAMSPAN-1.1155          24.6533       NO       
      STEELBEAMSPAN-1.1158          24.0888       NO       
      STEELBEAMSPAN-1.1160          38.7536       NO       
      STEELBEAMSPAN-1.1167          25.4996       NO       
      STEELBEAMSPAN-1.1168          19.7933       NO       
      STEELBEAMSPAN-1.1169          35.0486       NO       
      STEELBEAMSPAN-1.1171           29.472       NO       
      STEELBEAMSPAN-1.1177          23.1827       NO       
      STEELBEAMSPAN-1.1180          24.6533       NO       
      STEELBEAMSPAN-1.1183          24.0888       NO       
      STEELBEAMSPAN-1.1185          38.7536       NO       
      STEELBEAMSPAN-1.1192          25.4996       NO       
      STEELBEAMSPAN-1.1193          19.7933       NO       
      STEELBEAMSPAN-1.1194          35.0486       NO       
      STEELBEAMSPAN-1.1196           29.472       NO       
      STEELBEAMSPAN-1.1202          23.1827       NO       
      STEELBEAMSPAN-1.1205          24.6533       NO       
      STEELBEAMSPAN-1.1208          24.0888       NO       
      STEELBEAMSPAN-1.1210          38.7536       NO       
      STEELBEAMSPAN-1.1217          25.4996       NO       
      STEELBEAMSPAN-1.1218          19.7933       NO       
      STEELBEAMSPAN-1.1219          35.0486       NO       
      STEELBEAMSPAN-1.1221           29.472       NO       
      STEELBEAMSPAN-1.1227          23.1827       NO       
      STEELBEAMSPAN-1.1230          24.6533       NO       
      STEELBEAMSPAN-1.1233          24.0888       NO       
      STEELBEAMSPAN-1.1235          38.7536       NO       
      STEELBEAMSPAN-1.1242          25.4996       NO       
      STEELBEAMSPAN-1.1243          19.7933       NO       
      STEELBEAMSPAN-1.1244          35.0486       NO       
      STEELBEAMSPAN-1.1246           29.472       NO       
      STEELBEAMSPAN-1.1252          23.1827       NO       
      STEELBEAMSPAN-1.1255          24.6533       NO       
      STEELBEAMSPAN-1.1258          24.0889       NO       
      STEELBEAMSPAN-1.1260          38.7536       NO       
      STEELBEAMSPAN-1.1267          25.4996       NO       
      STEELBEAMSPAN-1.1268          19.7933       NO       
      STEELBEAMSPAN-1.1269          35.0486       NO       
      STEELBEAMSPAN-1.1271           29.472       NO       
      STEELBEAMSPAN-1.1277          23.1827       NO       
      STEELBEAMSPAN-1.1280          24.6533       NO       
      STEELBEAMSPAN-1.1283          24.0889       NO       
      STEELBEAMSPAN-1.1285          38.7537       NO       
      STEELBEAMSPAN-1.1292          25.4996       NO       
      STEELBEAMSPAN-1.1293          19.7933       NO       
      STEELBEAMSPAN-1.1294          35.0486       NO       
      STEELBEAMSPAN-1.1296           29.472       NO       
      STEELBEAMSPAN-1.1302          23.1827       NO       
      STEELBEAMSPAN-1.1305          24.6533       NO       
      STEELBEAMSPAN-1.1308          24.0889       NO       
      STEELBEAMSPAN-1.1310          38.7537       NO       
      STEELBEAMSPAN-1.1317          25.4996       NO       
      STEELBEAMSPAN-1.1318          19.7933       NO       
      STEELBEAMSPAN-1.1319          35.0486       NO       
      STEELBEAMSPAN-1.1321           29.472       NO       
      STEELBEAMSPAN-1.1327          23.1827       NO       
      STEELBEAMSPAN-1.1330          24.6533       NO       
      STEELBEAMSPAN-1.1333          24.0889       NO       
      STEELBEAMSPAN-1.1335          38.7537       NO       
      STEELBEAMSPAN-1.1342          25.4996       NO       
      STEELBEAMSPAN-1.1343          19.7933       NO       
      STEELBEAMSPAN-1.1344          35.0486       NO       
      STEELBEAMSPAN-1.1346           29.472       NO       
      STEELBEAMSPAN-1.1352          23.1827       NO       
      STEELBEAMSPAN-1.1355          24.6533       NO       
      STEELBEAMSPAN-1.1358          24.0889       NO       
      STEELBEAMSPAN-1.1360          38.7537       NO       
      STEELBEAMSPAN-1.1367          25.4996       NO       
      STEELBEAMSPAN-1.1368          19.7933       NO       
      STEELBEAMSPAN-1.1369          35.0486       NO       
      STEELBEAMSPAN-1.1371           29.472       NO       
      STEELBEAMSPAN-1.1377          23.1827       NO       
      STEELBEAMSPAN-1.1380          24.6533       NO       
      STEELBEAMSPAN-1.1383          24.0889       NO       
      STEELBEAMSPAN-1.1385          38.7537       NO       
      STEELBEAMSPAN-1.1392          25.4996       NO       
      STEELBEAMSPAN-1.1393          19.7933       NO       
      STEELBEAMSPAN-1.1394          35.0486       NO       
      STEELBEAMSPAN-1.1396           29.472       NO       
      STEELBEAMSPAN-1.1402          23.1827       NO       
      STEELBEAMSPAN-1.1405          24.6533       NO       
      STEELBEAMSPAN-1.1408          24.0889       NO       
      STEELBEAMSPAN-1.1410          38.7537       NO       
      STEELBEAMSPAN-1.1417          25.4996       NO       
      STEELBEAMSPAN-1.1418          19.7933       NO       
      STEELBEAMSPAN-1.1419          35.0486       NO       
      STEELBEAMSPAN-1.1421           29.472       NO       
      STEELBEAMSPAN-1.1427          23.1827       NO       
      STEELBEAMSPAN-1.1430          24.6533       NO       
      STEELBEAMSPAN-1.1433          24.0889       NO       
      STEELBEAMSPAN-1.1435          38.7537       NO       
      STEELBEAMSPAN-1.1442          25.4996       NO       
      STEELBEAMSPAN-1.1443          19.7933       NO       
      STEELBEAMSPAN-1.1444          35.0486       NO       
      STEELBEAMSPAN-1.1446          29.4721       NO       
      STEELBEAMSPAN-1.1452          23.1827       NO       
      STEELBEAMSPAN-1.1455          24.6533       NO       
      STEELBEAMSPAN-1.1458          24.0889       NO       
      STEELBEAMSPAN-1.1460          38.7537       NO       
      STEELBEAMSPAN-1.1467          25.4996       NO       
      STEELBEAMSPAN-1.1468          19.7933       NO       
      STEELBEAMSPAN-1.1469          35.0487       NO       
      STEELBEAMSPAN-1.1471          29.4721       NO       
      STEELBEAMSPAN-1.1477          23.1827       NO       
      STEELBEAMSPAN-1.1480          24.6533       NO       
      STEELBEAMSPAN-1.1483          24.0889       NO       
      STEELBEAMSPAN-1.1485          38.7537       NO       
      STEELBEAMSPAN-1.1492          25.4996       NO       
      STEELBEAMSPAN-1.1493          19.7933       NO       
      STEELBEAMSPAN-1.1494          35.0487       NO       
      STEELBEAMSPAN-1.1496          29.4721       NO       
      STEELBEAMSPAN-1.1502          23.1827       NO       
      STEELBEAMSPAN-1.1505          24.6533       NO       
      STEELBEAMSPAN-1.1508          24.0889       NO       
      STEELBEAMSPAN-1.1510          38.7537       NO       
      STEELBEAMSPAN-1.1517          25.4996       NO       
      STEELBEAMSPAN-1.1518          19.7934       NO       
      STEELBEAMSPAN-1.1519          35.0487       NO       
      STEELBEAMSPAN-1.1521          29.4721       NO       
      STEELBEAMSPAN-1.1527          23.1827       NO       
      STEELBEAMSPAN-1.1530          24.6533       NO       
      STEELBEAMSPAN-1.1533          24.0889       NO       
      STEELBEAMSPAN-1.1535          38.7537       NO       
      STEELBEAMSPAN-1.1542          25.4996       NO       
      STEELBEAMSPAN-1.1543          19.7934       NO       
      STEELBEAMSPAN-1.1544          35.0487       NO       
      STEELBEAMSPAN-1.1546          29.4721       NO       
      STEELBEAMSPAN-1.1552          23.1827       NO       
      STEELBEAMSPAN-1.1555          24.6533       NO       
      STEELBEAMSPAN-1.1558          24.0889       NO       
      STEELBEAMSPAN-1.1560          38.7537       NO       
      STEELBEAMSPAN-1.1567          25.4996       NO       
      STEELBEAMSPAN-1.1568          19.7934       NO       
      STEELBEAMSPAN-1.1569          35.0487       NO       
      STEELBEAMSPAN-1.1571          29.4721       NO       
      STEELBEAMSPAN-1.1577          23.1827       NO       
      STEELBEAMSPAN-1.1580          24.6533       NO       
      STEELBEAMSPAN-1.1583          24.0889       NO       
      STEELBEAMSPAN-1.1585          38.7537       NO       
      STEELBEAMSPAN-1.1592          25.4996       NO       
      STEELBEAMSPAN-1.1593          19.7934       NO       
      STEELBEAMSPAN-1.1594          35.0487       NO       
      STEELBEAMSPAN-1.1596          29.4721       NO       
      STEELBEAMSPAN-1.1602          23.1828       NO       
      STEELBEAMSPAN-1.1605          24.6533       NO       
      STEELBEAMSPAN-1.1608          24.0889       NO       
      STEELBEAMSPAN-1.1610          38.7537       NO       
      STEELBEAMSPAN-1.1617          25.4996       NO       
      STEELBEAMSPAN-1.1618          19.7934       NO       
      STEELBEAMSPAN-1.1619          35.0487       NO       
      STEELBEAMSPAN-1.1621          29.4721       NO       
      STEELBEAMSPAN-1.1627          23.1828       NO       
      STEELBEAMSPAN-1.1630          24.6533       NO       
      STEELBEAMSPAN-1.1633          24.0889       NO       
      STEELBEAMSPAN-1.1635          38.7538       NO       
      STEELBEAMSPAN-1.1642          25.4996       NO       
      STEELBEAMSPAN-1.1643          19.7934       NO       
      STEELBEAMSPAN-1.1644          35.0487       NO       
      STEELBEAMSPAN-1.1646          29.4721       NO       
      STEELBEAMSPAN-1.1652          23.1828       NO       
      STEELBEAMSPAN-1.1655          24.6533       NO       
      STEELBEAMSPAN-1.1658          24.0889       NO       
      STEELBEAMSPAN-1.1660          38.7538       NO       
      STEELBEAMSPAN-1.1667          25.4996       NO       
      STEELBEAMSPAN-1.1668          19.7934       NO       
      STEELBEAMSPAN-1.1669          35.0487       NO       
      STEELBEAMSPAN-1.1671          29.4722       NO       
      STEELBEAMSPAN-1.1677          23.1828       NO       
      STEELBEAMSPAN-1.1680          24.6533       NO       
      STEELBEAMSPAN-1.1683          24.0889       NO       
      STEELBEAMSPAN-1.1685          38.7538       NO       
      STEELBEAMSPAN-1.1692          25.4996       NO       
      STEELBEAMSPAN-1.1693          19.7934       NO       
      STEELBEAMSPAN-1.1694          35.0487       NO       
      STEELBEAMSPAN-1.1696          29.4722       NO       
      STEELBEAMSPAN-1.1702          23.1828       NO       
      STEELBEAMSPAN-1.1705          24.6533       NO       
      STEELBEAMSPAN-1.1708          24.0889       NO       
      STEELBEAMSPAN-1.1710          38.7538       NO       
      STEELBEAMSPAN-1.1717          25.4996       NO       
      STEELBEAMSPAN-1.1718          19.7934       NO       
      STEELBEAMSPAN-1.1719          35.0487       NO       
      STEELBEAMSPAN-1.1721          29.4722       NO       
      STEELBEAMSPAN-1.1727          23.1828       NO       
      STEELBEAMSPAN-1.1730          24.6533       NO       
      STEELBEAMSPAN-1.1733          24.0889       NO       
      STEELBEAMSPAN-1.1735          38.7538       NO       
      STEELBEAMSPAN-1.1742          25.4996       NO       
      STEELBEAMSPAN-1.1743          19.7934       NO       
      STEELBEAMSPAN-1.1744          35.0487       NO       
      STEELBEAMSPAN-1.1746          29.4722       NO       
      STEELBEAMSPAN-1.1752          23.1828       NO       
      STEELBEAMSPAN-1.1755          24.6533       NO       
      STEELBEAMSPAN-1.1758          24.0889       NO       
      STEELBEAMSPAN-1.1760          38.7538       NO       
      STEELBEAMSPAN-1.1767          25.4996       NO       
      STEELBEAMSPAN-1.1768          19.7934       NO       
      STEELBEAMSPAN-1.1769          35.0487       NO       
      STEELBEAMSPAN-1.1771          29.4722       NO       
      STEELBEAMSPAN-1.1777          23.1828       NO       
      STEELBEAMSPAN-1.1780          24.6533       NO       
      STEELBEAMSPAN-1.1783          24.0889       NO       
      STEELBEAMSPAN-1.1785          38.7538       NO       
      STEELBEAMSPAN-1.1792          25.4996       NO       
      STEELBEAMSPAN-1.1793          19.7934       NO       
      STEELBEAMSPAN-1.1794          35.0487       NO       
      STEELBEAMSPAN-1.1796          29.4722       NO       
      STEELBEAMSPAN-1.1802          23.1828       NO       
      STEELBEAMSPAN-1.1805          24.6533       NO       
      STEELBEAMSPAN-1.1808          24.0889       NO       
      STEELBEAMSPAN-1.1810          38.7538       NO       
      STEELBEAMSPAN-1.1817          25.4996       NO       
      STEELBEAMSPAN-1.1818          19.7934       NO       
      STEELBEAMSPAN-1.1819          35.0487       NO       
      STEELBEAMSPAN-1.1821          29.4722       NO       
      STEELBEAMSPAN-1.1827          23.1828       NO       
      STEELBEAMSPAN-1.1830          24.6533       NO       
      STEELBEAMSPAN-1.1833          24.0889       NO       
      STEELBEAMSPAN-1.1835          38.7538       NO       
      STEELBEAMSPAN-1.1842          25.4996       NO       
      STEELBEAMSPAN-1.1843          19.7934       NO       
      STEELBEAMSPAN-1.1844          35.0487       NO       
      STEELBEAMSPAN-1.1846          29.4722       NO       
      STEELBEAMSPAN-1.1852          23.1828       NO       
      STEELBEAMSPAN-1.1855          24.6533       NO       
      STEELBEAMSPAN-1.1858          24.0889       NO       
      STEELBEAMSPAN-1.1860          38.7538       NO       
      STEELBEAMSPAN-1.1867          25.4996       NO       
      STEELBEAMSPAN-1.1868          19.7935       NO       
      STEELBEAMSPAN-1.1869          35.0487       NO       
      STEELBEAMSPAN-1.1871          29.4722       NO       
      STEELBEAMSPAN-1.1877          23.1828       NO       
      STEELBEAMSPAN-1.1880          24.6533       NO       
      STEELBEAMSPAN-1.1883          24.0889       NO       
      STEELBEAMSPAN-1.1885          38.7538       NO       
      STEELBEAMSPAN-1.1892          25.4996       NO       
      STEELBEAMSPAN-1.1893          19.7935       NO       
      STEELBEAMSPAN-1.1894          35.0487       NO       
      STEELBEAMSPAN-1.1896          29.4722       NO       
      STEELBEAMSPAN-1.1902          23.1828       NO       
      STEELBEAMSPAN-1.1905          24.6533       NO       
      STEELBEAMSPAN-1.1908          24.0889       NO       
      STEELBEAMSPAN-1.1910          38.7538       NO       
      STEELBEAMSPAN-1.1917          25.4996       NO       
      STEELBEAMSPAN-1.1918          19.7935       NO       
      STEELBEAMSPAN-1.1919          35.0487       NO       
      STEELBEAMSPAN-1.1921          29.4723       NO       
      STEELBEAMSPAN-1.1927          23.1828       NO       
      STEELBEAMSPAN-1.1930          24.6533       NO       
      STEELBEAMSPAN-1.1933          24.0889       NO       
      STEELBEAMSPAN-1.1935          38.7539       NO       
      STEELBEAMSPAN-1.1942          25.4996       NO       
      STEELBEAMSPAN-1.1943          19.7935       NO       
      STEELBEAMSPAN-1.1944          35.0487       NO       
      STEELBEAMSPAN-1.1946          29.4723       NO       
      STEELBEAMSPAN-1.1952          23.1828       NO       
      STEELBEAMSPAN-1.1955          24.6533       NO       
      STEELBEAMSPAN-1.1958          24.0889       NO       
      STEELBEAMSPAN-1.1960          38.7539       NO       
      STEELBEAMSPAN-1.1967          25.4996       NO       
      STEELBEAMSPAN-1.1968          19.7935       NO       
      STEELBEAMSPAN-1.1969          35.0487       NO       
      STEELBEAMSPAN-1.1971          29.4723       NO       
      STEELBEAMSPAN-1.1977          23.1828       NO       
      STEELBEAMSPAN-1.1980          24.6533       NO       
      STEELBEAMSPAN-1.1983          24.0889       NO       
      STEELBEAMSPAN-1.1985          38.7539       NO       
      STEELBEAMSPAN-1.1992          25.4996       NO       
      STEELBEAMSPAN-1.1993          19.7935       NO       
      STEELBEAMSPAN-1.1994          35.0488       NO       
      STEELBEAMSPAN-1.1996          29.4723       NO       
      STEELBEAMSPAN-1.2002          23.1829       NO       
      STEELBEAMSPAN-1.2005          24.6533       NO       
      STEELBEAMSPAN-1.2008          24.0889       NO       
      STEELBEAMSPAN-1.2010          38.7539       NO       
      STEELBEAMSPAN-1.2017          25.4996       NO       
      STEELBEAMSPAN-1.2018          19.7935       NO       
      STEELBEAMSPAN-1.2019          35.0488       NO       
      STEELBEAMSPAN-1.2021          29.4723       NO       
      STEELBEAMSPAN-1.2027          23.1829       NO       
      STEELBEAMSPAN-1.2030          24.6533       NO       
      STEELBEAMSPAN-1.2033          24.0889       NO       
      STEELBEAMSPAN-1.2035          38.7539       NO       
      STEELBEAMSPAN-1.2042          25.4996       NO       
      STEELBEAMSPAN-1.2043          19.7935       NO       
      STEELBEAMSPAN-1.2044          35.0488       NO       
      STEELBEAMSPAN-1.2046          29.4723       NO       
      STEELBEAMSPAN-1.2052          23.1829       NO       
      STEELBEAMSPAN-1.2055          24.6533       NO       
      STEELBEAMSPAN-1.2058          24.0889       NO       
      STEELBEAMSPAN-1.2060          38.7539       NO       
      STEELBEAMSPAN-1.2067          25.4996       NO       
      STEELBEAMSPAN-1.2068          19.7935       NO       
      STEELBEAMSPAN-1.2069          35.0488       NO       
      STEELBEAMSPAN-1.2071          29.4723       NO       
      STEELBEAMSPAN-1.2077          23.1829       NO       
      STEELBEAMSPAN-1.2080          24.6533       NO       
      STEELBEAMSPAN-1.2083          24.0889       NO       
      STEELBEAMSPAN-1.2085          38.7539       NO       
      STEELBEAMSPAN-1.2092          25.4996       NO       
      STEELBEAMSPAN-1.2093          19.7935       NO       
      STEELBEAMSPAN-1.2094          35.0488       NO       
      STEELBEAMSPAN-1.2096          29.4724       NO       
      STEELBEAMSPAN-1.2102          23.1829       NO       
      STEELBEAMSPAN-1.2105          24.6533       NO       
      STEELBEAMSPAN-1.2108          24.0889       NO       
      STEELBEAMSPAN-1.2110          38.7539       NO       
      STEELBEAMSPAN-1.2117          25.4996       NO       
      STEELBEAMSPAN-1.2118          19.7935       NO       
      STEELBEAMSPAN-1.2119          35.0488       NO       
      STEELBEAMSPAN-1.2121          29.4724       NO       
      STEELBEAMSPAN-1.2127          23.1829       NO       
      STEELBEAMSPAN-1.2130          24.6533       NO       
      STEELBEAMSPAN-1.2133          24.0889       NO       
      STEELBEAMSPAN-1.2135          38.7539       NO       
      STEELBEAMSPAN-1.2142          25.4996       NO       
      STEELBEAMSPAN-1.2143          19.7935       NO       
      STEELBEAMSPAN-1.2144          35.0488       NO       
      STEELBEAMSPAN-1.2146          29.4724       NO       
      STEELBEAMSPAN-1.2152          23.1829       NO       
      STEELBEAMSPAN-1.2155          24.6533       NO       
      STEELBEAMSPAN-1.2158          24.0889       NO       
      STEELBEAMSPAN-1.2160          38.7539       NO       
      STEELBEAMSPAN-1.2167          25.4997       NO       
      STEELBEAMSPAN-1.2168          19.7935       NO       
      STEELBEAMSPAN-1.2169          35.0488       NO       
      STEELBEAMSPAN-1.2171          29.4724       NO       
      STEELBEAMSPAN-1.2177          23.1829       NO       
      STEELBEAMSPAN-1.2180          24.6533       NO       
      STEELBEAMSPAN-1.2183          24.0889       NO       
      STEELBEAMSPAN-1.2185           38.754       NO       
      STEELBEAMSPAN-1.2192          25.4997       NO       
      STEELBEAMSPAN-1.2193          19.7936       NO       
      STEELBEAMSPAN-1.2194          35.0488       NO       
      STEELBEAMSPAN-1.2196          29.4724       NO       
      STEELBEAMSPAN-1.2202          23.1829       NO       
      STEELBEAMSPAN-1.2205          24.6533       NO       
      STEELBEAMSPAN-1.2208          24.0889       NO       
      STEELBEAMSPAN-1.2210           38.754       NO       
      STEELBEAMSPAN-1.2217          25.4997       NO       
      STEELBEAMSPAN-1.2218          19.7936       NO       
      STEELBEAMSPAN-1.2219          35.0488       NO       
      STEELBEAMSPAN-1.2221          29.4724       NO       
      STEELBEAMSPAN-1.2227          23.1829       NO       
      STEELBEAMSPAN-1.2230          24.6533       NO       
      STEELBEAMSPAN-1.2233          24.0889       NO       
      STEELBEAMSPAN-1.2235           38.754       NO       
      STEELBEAMSPAN-1.2242          25.4997       NO       
      STEELBEAMSPAN-1.2243          19.7936       NO       
      STEELBEAMSPAN-1.2244          35.0488       NO       
      STEELBEAMSPAN-1.2246          29.4724       NO       
      STEELBEAMSPAN-1.2252          23.1829       NO       
      STEELBEAMSPAN-1.2255          24.6533       NO       
      STEELBEAMSPAN-1.2258          24.0889       NO       
      STEELBEAMSPAN-1.2260           38.754       NO       
      STEELBEAMSPAN-1.2267          25.4997       NO       
      STEELBEAMSPAN-1.2268          19.7936       NO       
      STEELBEAMSPAN-1.2269          35.0488       NO       
      STEELBEAMSPAN-1.2271          29.4725       NO       
      STEELBEAMSPAN-1.2277          23.1829       NO       
      STEELBEAMSPAN-1.2280          24.6533       NO       
      STEELBEAMSPAN-1.2283          24.0889       NO       
      STEELBEAMSPAN-1.2285           38.754       NO       
      STEELBEAMSPAN-1.2292          25.4997       NO       
      STEELBEAMSPAN-1.2293          19.7936       NO       
      STEELBEAMSPAN-1.2294          35.0488       NO       
      STEELBEAMSPAN-1.2296          29.4725       NO       
      STEELBEAMSPAN-1.2302           23.183       NO       
      STEELBEAMSPAN-1.2305          24.6533       NO       
      STEELBEAMSPAN-1.2308          24.0889       NO       
      STEELBEAMSPAN-1.2310           38.754       NO       
      STEELBEAMSPAN-1.2317          25.4997       NO       
      STEELBEAMSPAN-1.2318          19.7936       NO       
      STEELBEAMSPAN-1.2319          35.0488       NO       
      STEELBEAMSPAN-1.2321          29.4725       NO       
      STEELBEAMSPAN-1.2327           23.183       NO       
      STEELBEAMSPAN-1.2330          24.6533       NO       
      STEELBEAMSPAN-1.2333          24.0889       NO       
      STEELBEAMSPAN-1.2335           38.754       NO       
      STEELBEAMSPAN-1.2342          25.4997       NO       
      STEELBEAMSPAN-1.2343          19.7936       NO       
      STEELBEAMSPAN-1.2344          35.0488       NO       
      STEELBEAMSPAN-1.2346          29.4725       NO       
      STEELBEAMSPAN-1.2352           23.183       NO       
      STEELBEAMSPAN-1.2355          24.6533       NO       
      STEELBEAMSPAN-1.2358          24.0889       NO       
      STEELBEAMSPAN-1.2360           38.754       NO       
      STEELBEAMSPAN-1.2367          25.4997       NO       
      STEELBEAMSPAN-1.2368          19.7936       NO       
      STEELBEAMSPAN-1.2369          35.0489       NO       
      STEELBEAMSPAN-1.2371          29.4725       NO       
      STEELBEAMSPAN-1.2377           23.183       NO       
      STEELBEAMSPAN-1.2380          24.6533       NO       
      STEELBEAMSPAN-1.2383          24.0889       NO       
      STEELBEAMSPAN-1.2385           38.754       NO       
      STEELBEAMSPAN-1.2392          25.4997       NO       
      STEELBEAMSPAN-1.2393          19.7936       NO       
      STEELBEAMSPAN-1.2394          35.0489       NO       
      STEELBEAMSPAN-1.2396          29.4725       NO       
      STEELBEAMSPAN-1.2402           23.183       NO       
      STEELBEAMSPAN-1.2405          24.6533       NO       
      STEELBEAMSPAN-1.2408          24.0889       NO       
      STEELBEAMSPAN-1.2410          38.7541       NO       
      STEELBEAMSPAN-1.2417          25.4997       NO       
      STEELBEAMSPAN-1.2418          19.7936       NO       
      STEELBEAMSPAN-1.2419          35.0489       NO       
      STEELBEAMSPAN-1.2421          29.4726       NO       
      STEELBEAMSPAN-1.2427           23.183       NO       
      STEELBEAMSPAN-1.2430          24.6533       NO       
      STEELBEAMSPAN-1.2433          24.0889       NO       
      STEELBEAMSPAN-1.2435          38.7541       NO       
      STEELBEAMSPAN-1.2442          25.4997       NO       
      STEELBEAMSPAN-1.2443          19.7936       NO       
      STEELBEAMSPAN-1.2444          35.0489       NO       
      STEELBEAMSPAN-1.2446          29.4726       NO       
      STEELBEAMSPAN-1.2452           23.183       NO       
      STEELBEAMSPAN-1.2455          24.6533       NO       
      STEELBEAMSPAN-1.2458          24.0889       NO       
      STEELBEAMSPAN-1.2460          38.7541       NO       
      STEELBEAMSPAN-1.2467          25.4997       NO       
      STEELBEAMSPAN-1.2468          19.7937       NO       
      STEELBEAMSPAN-1.2469          35.0489       NO       
      STEELBEAMSPAN-1.2471          29.4726       NO       
      STEELBEAMSPAN-1.2477           23.183       NO       
      STEELBEAMSPAN-1.2480          24.6533       NO       
      STEELBEAMSPAN-1.2483          24.0889       NO       
      STEELBEAMSPAN-1.2485          38.7541       NO       
      STEELBEAMSPAN-1.2492          25.4997       NO       
      STEELBEAMSPAN-1.2493          19.7937       NO       
      STEELBEAMSPAN-1.2494          35.0489       NO       
      STEELBEAMSPAN-1.2496          29.4726       NO       
      STEELBEAMSPAN-1.2502           23.183       NO       
      STEELBEAMSPAN-1.2505          24.6533       NO       
      STEELBEAMSPAN-1.2508          24.0889       NO       
      STEELBEAMSPAN-1.2510          38.7541       NO       
      STEELBEAMSPAN-1.2517          25.4997       NO       
      STEELBEAMSPAN-1.2518          19.7937       NO       
      STEELBEAMSPAN-1.2519          35.0489       NO       
      STEELBEAMSPAN-1.2521          29.4726       NO       
      STEELBEAMSPAN-1.2527           23.183       NO       
      STEELBEAMSPAN-1.2530          24.6533       NO       
      STEELBEAMSPAN-1.2533          24.0889       NO       
      STEELBEAMSPAN-1.2535          38.7541       NO       
      STEELBEAMSPAN-1.2542          25.4997       NO       
      STEELBEAMSPAN-1.2543          19.7937       NO       
      STEELBEAMSPAN-1.2544          35.0489       NO       
      STEELBEAMSPAN-1.2546          29.4726       NO       
      STEELBEAMSPAN-1.2552           23.183       NO       
      STEELBEAMSPAN-1.2555          24.6533       NO       
      STEELBEAMSPAN-1.2558          24.0889       NO       
      STEELBEAMSPAN-1.2560          38.7541       NO       
      STEELBEAMSPAN-1.2567          25.4997       NO       
      STEELBEAMSPAN-1.2568          19.7937       NO       
      STEELBEAMSPAN-1.2569          35.0489       NO       
      STEELBEAMSPAN-1.2571          29.4726       NO       
      STEELBEAMSPAN-1.2577           23.183       NO       
      STEELBEAMSPAN-1.2580          24.6533       NO       
      STEELBEAMSPAN-1.2583          24.0889       NO       
      STEELBEAMSPAN-1.2585          38.7541       NO       
      STEELBEAMSPAN-1.2592          25.4997       NO       
      STEELBEAMSPAN-1.2593          19.7937       NO       
      STEELBEAMSPAN-1.2594          35.0489       NO       
      STEELBEAMSPAN-1.2596          29.4727       NO       
      STEELBEAMSPAN-1.2602          23.1831       NO       
      STEELBEAMSPAN-1.2605          24.6533       NO       
      STEELBEAMSPAN-1.2608          24.0889       NO       
      STEELBEAMSPAN-1.2610          38.7541       NO       
      STEELBEAMSPAN-1.2617          25.4997       NO       
      STEELBEAMSPAN-1.2618          19.7937       NO       
      STEELBEAMSPAN-1.2619          35.0489       NO       
      STEELBEAMSPAN-1.2621          29.4727       NO       
      STEELBEAMSPAN-1.2627          23.1831       NO       
      STEELBEAMSPAN-1.2630          24.6533       NO       
      STEELBEAMSPAN-1.2633          24.0889       NO       
      STEELBEAMSPAN-1.2635          38.7542       NO       
      STEELBEAMSPAN-1.2642          25.4997       NO       
      STEELBEAMSPAN-1.2643          19.7937       NO       
      STEELBEAMSPAN-1.2644          35.0489       NO       
      STEELBEAMSPAN-1.2646          29.4727       NO       
      STEELBEAMSPAN-1.2652          23.1831       NO       
      STEELBEAMSPAN-1.2655          24.6533       NO       
      STEELBEAMSPAN-1.2658          24.0889       NO       
      STEELBEAMSPAN-1.2660          38.7542       NO       
      STEELBEAMSPAN-1.2667          25.4997       NO       
      STEELBEAMSPAN-1.2668          19.7937       NO       
      STEELBEAMSPAN-1.2669          35.0489       NO       
      STEELBEAMSPAN-1.2671          29.4727       NO       
      STEELBEAMSPAN-1.2677          23.1831       NO       
      STEELBEAMSPAN-1.2680          24.6533       NO       
      STEELBEAMSPAN-1.2683          24.0889       NO       
      STEELBEAMSPAN-1.2685          38.7542       NO       
      STEELBEAMSPAN-1.2692          25.4997       NO       
      STEELBEAMSPAN-1.2693          19.7938       NO       
      STEELBEAMSPAN-1.2694           35.049       NO       
      STEELBEAMSPAN-1.2696          29.4727       NO       
      STEELBEAMSPAN-1.2702          23.1831       NO       
      STEELBEAMSPAN-1.2705          24.6533       NO       
      STEELBEAMSPAN-1.2708          24.0889       NO       
      STEELBEAMSPAN-1.2710          38.7542       NO       
      STEELBEAMSPAN-1.2717          25.4997       NO       
      STEELBEAMSPAN-1.2718          19.7938       NO       
      STEELBEAMSPAN-1.2719           35.049       NO       
      STEELBEAMSPAN-1.2721          29.4727       NO       
      STEELBEAMSPAN-1.2727          23.1831       NO       
      STEELBEAMSPAN-1.2730          24.6533       NO       
      STEELBEAMSPAN-1.2733          24.0889       NO       
      STEELBEAMSPAN-1.2735          38.7542       NO       
      STEELBEAMSPAN-1.2742          25.4997       NO       
      STEELBEAMSPAN-1.2743          19.7938       NO       
      STEELBEAMSPAN-1.2744           35.049       NO       
      STEELBEAMSPAN-1.2746          29.4728       NO       
      STEELBEAMSPAN-1.2752          23.1831       NO       
      STEELBEAMSPAN-1.2755          24.6533       NO       
      STEELBEAMSPAN-1.2758          24.0889       NO       
      STEELBEAMSPAN-1.2760          38.7542       NO       
      STEELBEAMSPAN-1.2767          25.4997       NO       
      STEELBEAMSPAN-1.2768          19.7938       NO       
      STEELBEAMSPAN-1.2769           35.049       NO       
      STEELBEAMSPAN-1.2771          29.4728       NO       
      STEELBEAMSPAN-1.2777          23.1831       NO       
      STEELBEAMSPAN-1.2780          24.6533       NO       
      STEELBEAMSPAN-1.2783          24.0889       NO       
      STEELBEAMSPAN-1.2785          38.7542       NO       
      STEELBEAMSPAN-1.2792          25.4997       NO       
      STEELBEAMSPAN-1.2793          19.7938       NO       
      STEELBEAMSPAN-1.2794           35.049       NO       
      STEELBEAMSPAN-1.2796          29.4728       NO       
      STEELBEAMSPAN-1.2802          23.1831       NO       
      STEELBEAMSPAN-1.2805          24.6533       NO       
      STEELBEAMSPAN-1.2808          24.0889       NO       
      STEELBEAMSPAN-1.2810          38.7543       NO       
      STEELBEAMSPAN-1.2817          25.4997       NO       
      STEELBEAMSPAN-1.2818          19.7938       NO       
      STEELBEAMSPAN-1.2819           35.049       NO       
      STEELBEAMSPAN-1.2821          29.4728       NO       
      STEELBEAMSPAN-1.2827          23.1831       NO       
      STEELBEAMSPAN-1.2830          24.6533       NO       
      STEELBEAMSPAN-1.2833          24.0889       NO       
      STEELBEAMSPAN-1.2835          38.7543       NO       
      STEELBEAMSPAN-1.2842          25.4997       NO       
      STEELBEAMSPAN-1.2843          19.7938       NO       
      STEELBEAMSPAN-1.2844           35.049       NO       
      STEELBEAMSPAN-1.2846          29.4728       NO       
      STEELBEAMSPAN-1.2852          23.1831       NO       
      STEELBEAMSPAN-1.2855          24.6533       NO       
      STEELBEAMSPAN-1.2858          24.0889       NO       
      STEELBEAMSPAN-1.2860          38.7543       NO       
      STEELBEAMSPAN-1.2867          25.4997       NO       
      STEELBEAMSPAN-1.2868          19.7938       NO       
      STEELBEAMSPAN-1.2869           35.049       NO       
      STEELBEAMSPAN-1.2871          29.4729       NO       
      STEELBEAMSPAN-1.2877          23.1832       NO       
      STEELBEAMSPAN-1.2880          24.6533       NO       
      STEELBEAMSPAN-1.2883          24.0889       NO       
      STEELBEAMSPAN-1.2885          38.7543       NO       
      STEELBEAMSPAN-1.2892          25.4997       NO       
      STEELBEAMSPAN-1.2893          19.7938       NO       
      STEELBEAMSPAN-1.2894           35.049       NO       
      STEELBEAMSPAN-1.2896          29.4729       NO       
      STEELBEAMSPAN-1.2902          23.1832       NO       
      STEELBEAMSPAN-1.2905          24.6533       NO       
      STEELBEAMSPAN-1.2908          24.0889       NO       
      STEELBEAMSPAN-1.2910          38.7543       NO       
      STEELBEAMSPAN-1.2917          25.4997       NO       
      STEELBEAMSPAN-1.2918          19.7938       NO       
      STEELBEAMSPAN-1.2919           35.049       NO       
      STEELBEAMSPAN-1.2921          29.4729       NO       
      STEELBEAMSPAN-1.2927          23.1832       NO       
      STEELBEAMSPAN-1.2930          24.6533       NO       
      STEELBEAMSPAN-1.2933          24.0889       NO       
      STEELBEAMSPAN-1.2935          38.7543       NO       
      STEELBEAMSPAN-1.2942          25.4997       NO       
      STEELBEAMSPAN-1.2943          19.7939       NO       
      STEELBEAMSPAN-1.2944           35.049       NO       
      STEELBEAMSPAN-1.2946          29.4729       NO       
      STEELBEAMSPAN-1.2952          23.1832       NO       
      STEELBEAMSPAN-1.2955          24.6533       NO       
      STEELBEAMSPAN-1.2958          24.0889       NO       
      STEELBEAMSPAN-1.2960          38.7543       NO       
      STEELBEAMSPAN-1.2967          25.4997       NO       
      STEELBEAMSPAN-1.2968          19.7939       NO       
      STEELBEAMSPAN-1.2969           35.049       NO       
      STEELBEAMSPAN-1.2971          29.4729       NO       
      STEELBEAMSPAN-1.2977          23.1832       NO       
      STEELBEAMSPAN-1.2980          24.6533       NO       
      STEELBEAMSPAN-1.2983          24.0889       NO       
      STEELBEAMSPAN-1.2985          38.7544       NO       
      STEELBEAMSPAN-1.2992          25.4997       NO       
      STEELBEAMSPAN-1.2993          19.7939       NO       
      STEELBEAMSPAN-1.2994           35.049       NO       
      STEELBEAMSPAN-1.2996          29.4729       NO       
      STEELBEAMSPAN-1.3002          23.1832       NO       
      STEELBEAMSPAN-1.3005          24.6533       NO       
      STEELBEAMSPAN-1.3008          24.0889       NO       
      STEELBEAMSPAN-1.3010          38.7544       NO       
      STEELBEAMSPAN-1.3017          25.4997       NO       
      STEELBEAMSPAN-1.3018          19.7939       NO       
      STEELBEAMSPAN-1.3019          35.0491       NO       
      STEELBEAMSPAN-1.3021           29.473       NO       
      STEELBEAMSPAN-1.3027          23.1832       NO       
      STEELBEAMSPAN-1.3030          24.6533       NO       
      STEELBEAMSPAN-1.3033          24.0889       NO       
      STEELBEAMSPAN-1.3035          38.7544       NO       
      STEELBEAMSPAN-1.3042          25.4997       NO       
      STEELBEAMSPAN-1.3043          19.7939       NO       
      STEELBEAMSPAN-1.3044          35.0491       NO       
      STEELBEAMSPAN-1.3046           29.473       NO       
      STEELBEAMSPAN-1.3052          23.1832       NO       
      STEELBEAMSPAN-1.3055          24.6533       NO       
      STEELBEAMSPAN-1.3058          24.0889       NO       
      STEELBEAMSPAN-1.3060          38.7544       NO       
      STEELBEAMSPAN-1.3067          25.4997       NO       
      STEELBEAMSPAN-1.3068          19.7939       NO       
      STEELBEAMSPAN-1.3069          35.0491       NO       
      STEELBEAMSPAN-1.3071           29.473       NO       
      STEELBEAMSPAN-1.3077          23.1832       NO       
      STEELBEAMSPAN-1.3080          24.6533       NO       
      STEELBEAMSPAN-1.3083          24.0889       NO       
      STEELBEAMSPAN-1.3085          38.7544       NO       
      STEELBEAMSPAN-1.3092          25.4997       NO       
      STEELBEAMSPAN-1.3093          19.7939       NO       
      STEELBEAMSPAN-1.3094          35.0491       NO       
      STEELBEAMSPAN-1.3096           29.473       NO       
      STEELBEAMSPAN-1.3102          23.1833       NO       
      STEELBEAMSPAN-1.3105          24.6533       NO       
      STEELBEAMSPAN-1.3108          24.0889       NO       
      STEELBEAMSPAN-1.3110          38.7544       NO       
      STEELBEAMSPAN-1.3117          25.4997       NO       
      STEELBEAMSPAN-1.3118          19.7939       NO       
      STEELBEAMSPAN-1.3119          35.0491       NO       
      STEELBEAMSPAN-1.3121           29.473       NO       
      STEELBEAMSPAN-1.3127          23.1833       NO       
      STEELBEAMSPAN-1.3130          24.6533       NO       
      STEELBEAMSPAN-1.3133          24.0889       NO       
      STEELBEAMSPAN-1.3135          38.7544       NO       
      STEELBEAMSPAN-1.3142          25.4997       NO       
      STEELBEAMSPAN-1.3143           19.794       NO       
      STEELBEAMSPAN-1.3144          35.0491       NO       
      STEELBEAMSPAN-1.3146          29.4731       NO       
      STEELBEAMSPAN-1.3152          23.1833       NO       
      STEELBEAMSPAN-1.3155          24.6533       NO       
      STEELBEAMSPAN-1.3158          24.0889       NO       
      STEELBEAMSPAN-1.3160          38.7545       NO       
      STEELBEAMSPAN-1.3167          25.4998       NO       
      STEELBEAMSPAN-1.3168           19.794       NO       
      STEELBEAMSPAN-1.3169          35.0491       NO       
      STEELBEAMSPAN-1.3171          29.4731       NO       
      STEELBEAMSPAN-1.3177          23.1833       NO       
      STEELBEAMSPAN-1.3180          24.6533       NO       
      STEELBEAMSPAN-1.3183          24.0889       NO       
      STEELBEAMSPAN-1.3185          38.7545       NO       
      STEELBEAMSPAN-1.3192          25.4998       NO       
      STEELBEAMSPAN-1.3193           19.794       NO       
      STEELBEAMSPAN-1.3194          35.0491       NO       
      STEELBEAMSPAN-1.3196          29.4731       NO       
      STEELBEAMSPAN-1.3202          23.1833       NO       
      STEELBEAMSPAN-1.3205          24.6533       NO       
      STEELBEAMSPAN-1.3208          24.0889       NO       
      STEELBEAMSPAN-1.3210          38.7545       NO       
      STEELBEAMSPAN-1.3217          25.4998       NO       
      STEELBEAMSPAN-1.3218           19.794       NO       
      STEELBEAMSPAN-1.3219          35.0491       NO       
      STEELBEAMSPAN-1.3221          29.4731       NO       
      STEELBEAMSPAN-1.3227          23.1833       NO       
      STEELBEAMSPAN-1.3230          24.6533       NO       
      STEELBEAMSPAN-1.3233          24.0889       NO       
      STEELBEAMSPAN-1.3235          38.7545       NO       
      STEELBEAMSPAN-1.3242          25.4998       NO       
      STEELBEAMSPAN-1.3243           19.794       NO       
      STEELBEAMSPAN-1.3244          35.0491       NO       
      STEELBEAMSPAN-1.3246          29.4732       NO       
      STEELBEAMSPAN-1.3252          23.1833       NO       
      STEELBEAMSPAN-1.3255          24.6534       NO       
      STEELBEAMSPAN-1.3258          24.0889       NO       
      STEELBEAMSPAN-1.3260          38.7545       NO       
      STEELBEAMSPAN-1.3267          25.4998       NO       
      STEELBEAMSPAN-1.3268           19.794       NO       
      STEELBEAMSPAN-1.3269          35.0491       NO       
      STEELBEAMSPAN-1.3271          29.4732       NO       
      STEELBEAMSPAN-1.3277          23.1833       NO       
      STEELBEAMSPAN-1.3280          24.6534       NO       
      STEELBEAMSPAN-1.3283          24.0889       NO       
      STEELBEAMSPAN-1.3285          38.7545       NO       
      STEELBEAMSPAN-1.3292          25.4998       NO       
      STEELBEAMSPAN-1.3293           19.794       NO       
      STEELBEAMSPAN-1.3294          35.0491       NO       
      STEELBEAMSPAN-1.3296          29.4732       NO       
      STEELBEAMSPAN-1.3302          23.1833       NO       
      STEELBEAMSPAN-1.3305          24.6534       NO       
      STEELBEAMSPAN-1.3308          24.0889       NO       
      STEELBEAMSPAN-1.3310          38.7545       NO       
      STEELBEAMSPAN-1.3317          25.4998       NO       
      STEELBEAMSPAN-1.3318           19.794       NO       
      STEELBEAMSPAN-1.3319          35.0492       NO       
      STEELBEAMSPAN-1.3321          29.4732       NO       
      STEELBEAMSPAN-1.3327          23.1833       NO       
      STEELBEAMSPAN-1.3330          24.6534       NO       
      STEELBEAMSPAN-1.3333          24.0889       NO       
      STEELBEAMSPAN-1.3335          38.7546       NO       
      STEELBEAMSPAN-1.3342          25.4998       NO       
      STEELBEAMSPAN-1.3343          19.7941       NO       
      STEELBEAMSPAN-1.3344          35.0492       NO       
      STEELBEAMSPAN-1.3346          29.4732       NO       
      STEELBEAMSPAN-1.3352          23.1834       NO       
      STEELBEAMSPAN-1.3355          24.6534       NO       
      STEELBEAMSPAN-1.3358          24.0889       NO       
      STEELBEAMSPAN-1.3360          38.7546       NO       
      STEELBEAMSPAN-1.3367          25.4998       NO       
      STEELBEAMSPAN-1.3368          19.7941       NO       
      STEELBEAMSPAN-1.3369          35.0492       NO       
      STEELBEAMSPAN-1.3371          29.4733       NO       
      STEELBEAMSPAN-1.3377          23.1834       NO       
      STEELBEAMSPAN-1.3380          24.6534       NO       
      STEELBEAMSPAN-1.3383           24.089       NO       
      STEELBEAMSPAN-1.3385          38.7546       NO       
      STEELBEAMSPAN-1.3392          25.4998       NO       
      STEELBEAMSPAN-1.3393          19.7941       NO       
      STEELBEAMSPAN-1.3394          35.0492       NO       
[...]
     STEELBEAMSPAN-2.10585           38.808       NO       
     STEELBEAMSPAN-2.10592          25.5037       NO       
     STEELBEAMSPAN-2.10593          19.8302       NO       
     STEELBEAMSPAN-2.10594          35.0899       NO       
     STEELBEAMSPAN-2.10596          29.5171       NO       
     STEELBEAMSPAN-2.10602          23.2151       NO       
     STEELBEAMSPAN-2.10605          24.6533       NO       
     STEELBEAMSPAN-2.10608          24.0888       NO       
     STEELBEAMSPAN-2.10610          38.7972       NO       
     STEELBEAMSPAN-2.10617          25.5029       NO       
     STEELBEAMSPAN-2.10618           19.823       NO       
     STEELBEAMSPAN-2.10619          35.0818       NO       
     STEELBEAMSPAN-2.10621          29.5082       NO       
     STEELBEAMSPAN-2.10627          23.2078       NO       
     STEELBEAMSPAN-2.10630          24.6533       NO       
     STEELBEAMSPAN-2.10633          24.0888       NO       
     STEELBEAMSPAN-2.10635          38.7876       NO       
     STEELBEAMSPAN-2.10642          25.5022       NO       
     STEELBEAMSPAN-2.10643          19.8164       NO       
     STEELBEAMSPAN-2.10644          35.0744       NO       
     STEELBEAMSPAN-2.10646          29.5002       NO       
     STEELBEAMSPAN-2.10652          23.2015       NO       
     STEELBEAMSPAN-2.10655          24.6533       NO       
     STEELBEAMSPAN-2.10658          24.0888       NO       
     STEELBEAMSPAN-2.10660          38.7792       NO       
     STEELBEAMSPAN-2.10667          25.5015       NO       
     STEELBEAMSPAN-2.10668          19.8106       NO       
     STEELBEAMSPAN-2.10669           35.068       NO       
     STEELBEAMSPAN-2.10671          29.4931       NO       
     STEELBEAMSPAN-2.10677          23.1961       NO       
     STEELBEAMSPAN-2.10680          24.6533       NO       
     STEELBEAMSPAN-2.10683          24.0888       NO       
     STEELBEAMSPAN-2.10685          38.7718       NO       
     STEELBEAMSPAN-2.10692           25.501       NO       
     STEELBEAMSPAN-2.10693          19.8057       NO       
     STEELBEAMSPAN-2.10694          35.0626       NO       
     STEELBEAMSPAN-2.10696          29.4871       NO       
     STEELBEAMSPAN-2.10702          23.1916       NO       
     STEELBEAMSPAN-2.10705          24.6533       NO       
     STEELBEAMSPAN-2.10708          24.0888       NO       
     STEELBEAMSPAN-2.10710          38.7657       NO       
     STEELBEAMSPAN-2.10717          25.5005       NO       
     STEELBEAMSPAN-2.10718          19.8015       NO       
     STEELBEAMSPAN-2.10719           35.058       NO       
     STEELBEAMSPAN-2.10721           29.482       NO       
     STEELBEAMSPAN-2.10727           23.188       NO       
     STEELBEAMSPAN-2.10730          24.6533       NO       
     STEELBEAMSPAN-2.10733          24.0888       NO       
     STEELBEAMSPAN-2.10735          38.7609       NO       
     STEELBEAMSPAN-2.10742          25.5001       NO       
     STEELBEAMSPAN-2.10743          19.7982       NO       
     STEELBEAMSPAN-2.10744          35.0543       NO       
     STEELBEAMSPAN-2.10746           29.478       NO       
     STEELBEAMSPAN-2.10752          23.1853       NO       
     STEELBEAMSPAN-2.10755          24.6533       NO       
     STEELBEAMSPAN-2.10758          24.0888       NO       
     STEELBEAMSPAN-2.10760          38.7573       NO       
     STEELBEAMSPAN-2.10767          25.4999       NO       
     STEELBEAMSPAN-2.10768          19.7958       NO       
     STEELBEAMSPAN-2.10769          35.0515       NO       
     STEELBEAMSPAN-2.10771           29.475       NO       
     STEELBEAMSPAN-2.10777          23.1835       NO       
     STEELBEAMSPAN-2.10780          24.6532       NO       
     STEELBEAMSPAN-2.10783          24.0888       NO       
     STEELBEAMSPAN-2.10785          38.7548       NO       
     STEELBEAMSPAN-2.10792          25.4997       NO       
     STEELBEAMSPAN-2.10793          19.7941       NO       
     STEELBEAMSPAN-2.10794          35.0497       NO       
     STEELBEAMSPAN-2.10796           29.473       NO       
     STEELBEAMSPAN-2.10802          23.1826       NO       
     STEELBEAMSPAN-2.10805          24.6532       NO       
     STEELBEAMSPAN-2.10808          24.0888       NO       
     STEELBEAMSPAN-2.10810          38.7536       NO       
     STEELBEAMSPAN-2.10817          25.4996       NO       
     STEELBEAMSPAN-2.10818          19.7933       NO       
     STEELBEAMSPAN-2.10819          35.0488       NO       
     STEELBEAMSPAN-2.10821          29.4719       NO       
  
  
  *Step, name=Freq, nlgeom=NO, perturbation
  *frequency, eigensolver=LANCZOS, normalization=MASS, sim=NO, acousticcoupling=ON
  *output, field, variable=PRESELECT
  *output, history, variable=PRESELECT
  *Step, name=Freq, nlgeom=NO, perturbation
  *Step, name=Freq, nlgeom=NO, perturbation
  *frequency, eigensolver=LANCZOS, normalization=MASS, sim=NO, acousticcoupling=ON
  *frequency, eigensolver=LANCZOS, normalization=MASS, sim=NO, acousticcoupling=ON
  *output, field, variable=PRESELECT
  *output, history, variable=PRESELECT
  *endstep
  *boundary
  *boundary
  *Step, name=Freq, nlgeom=NO, perturbation
  *frequency, eigensolver=LANCZOS, normalization=MASS, sim=NO, acousticcoupling=ON
  *frequency, eigensolver=LANCZOS, normalization=MASS, sim=NO, acousticcoupling=ON
  *endstep

 ***WARNING: DEGREE OF FREEDOM 1 HAS BEEN ELIMINATED AT NODE 1 INSTANCE 
             CONCRETEPATH-1 BOUNDARY CONDITION TYPE ENCASTRE MAY NOT BE APPLIED 
             AT THIS NODE

 ***WARNING: DEGREE OF FREEDOM 2 HAS BEEN ELIMINATED AT NODE 1 INSTANCE 
             CONCRETEPATH-1 BOUNDARY CONDITION TYPE ENCASTRE MAY NOT BE APPLIED 
             AT THIS NODE

 ***WARNING: DEGREE OF FREEDOM 3 HAS BEEN ELIMINATED AT NODE 1 INSTANCE 
             CONCRETEPATH-1 BOUNDARY CONDITION TYPE ENCASTRE MAY NOT BE APPLIED 
             AT THIS NODE

 ***WARNING: DEGREE OF FREEDOM 1 HAS BEEN ELIMINATED AT NODE 2 INSTANCE 
             CONCRETEPATH-1 BOUNDARY CONDITION TYPE ENCASTRE MAY NOT BE APPLIED 
             AT THIS NODE

 ***WARNING: DEGREE OF FREEDOM 2 HAS BEEN ELIMINATED AT NODE 2 INSTANCE 
             CONCRETEPATH-1 BOUNDARY CONDITION TYPE ENCASTRE MAY NOT BE APPLIED 
             AT THIS NODE

 ***WARNING: DEGREE OF FREEDOM 3 HAS BEEN ELIMINATED AT NODE 2 INSTANCE 
             CONCRETEPATH-1 BOUNDARY CONDITION TYPE ENCASTRE MAY NOT BE APPLIED 
             AT THIS NODE

 ***WARNING: DEGREE OF FREEDOM 1 HAS BEEN ELIMINATED AT NODE 7 INSTANCE 
             CONCRETEPATH-1 BOUNDARY CONDITION TYPE ENCASTRE MAY NOT BE APPLIED 
             AT THIS NODE

 ***WARNING: DEGREE OF FREEDOM 2 HAS BEEN ELIMINATED AT NODE 7 INSTANCE 
             CONCRETEPATH-1 BOUNDARY CONDITION TYPE ENCASTRE MAY NOT BE APPLIED 
             AT THIS NODE

 ***WARNING: DEGREE OF FREEDOM 3 HAS BEEN ELIMINATED AT NODE 7 INSTANCE 
             CONCRETEPATH-1 BOUNDARY CONDITION TYPE ENCASTRE MAY NOT BE APPLIED 
             AT THIS NODE

 ***WARNING: DEGREE OF FREEDOM 1 HAS BEEN ELIMINATED AT NODE 8 INSTANCE 
             CONCRETEPATH-1 BOUNDARY CONDITION TYPE ENCASTRE MAY NOT BE APPLIED 
             AT THIS NODE

 ***WARNING: DEGREE OF FREEDOM 2 HAS BEEN ELIMINATED AT NODE 8 INSTANCE 
             CONCRETEPATH-1 BOUNDARY CONDITION TYPE ENCASTRE MAY NOT BE APPLIED 
             AT THIS NODE

 ***WARNING: DEGREE OF FREEDOM 3 HAS BEEN ELIMINATED AT NODE 8 INSTANCE 
             CONCRETEPATH-1 BOUNDARY CONDITION TYPE ENCASTRE MAY NOT BE APPLIED 
             AT THIS NODE

 ***WARNING: DEGREE OF FREEDOM 1 HAS BEEN ELIMINATED AT NODE 947 INSTANCE 
             CONCRETEPATH-1 BOUNDARY CONDITION TYPE ENCASTRE MAY NOT BE APPLIED 
             AT THIS NODE

 ***WARNING: DEGREE OF FREEDOM 2 HAS BEEN ELIMINATED AT NODE 947 INSTANCE 
             CONCRETEPATH-1 BOUNDARY CONDITION TYPE ENCASTRE MAY NOT BE APPLIED 
             AT THIS NODE

 ***WARNING: DEGREE OF FREEDOM 3 HAS BEEN ELIMINATED AT NODE 947 INSTANCE 
             CONCRETEPATH-1 BOUNDARY CONDITION TYPE ENCASTRE MAY NOT BE APPLIED 
             AT THIS NODE

 ***WARNING: DEGREE OF FREEDOM 1 HAS BEEN ELIMINATED AT NODE 948 INSTANCE 
             CONCRETEPATH-1 BOUNDARY CONDITION TYPE ENCASTRE MAY NOT BE APPLIED 
             AT THIS NODE

 ***WARNING: DEGREE OF FREEDOM 2 HAS BEEN ELIMINATED AT NODE 948 INSTANCE 
             CONCRETEPATH-1 BOUNDARY CONDITION TYPE ENCASTRE MAY NOT BE APPLIED 
             AT THIS NODE

 ***WARNING: DEGREE OF FREEDOM 3 HAS BEEN ELIMINATED AT NODE 948 INSTANCE 
             CONCRETEPATH-1 BOUNDARY CONDITION TYPE ENCASTRE MAY NOT BE APPLIED 
             AT THIS NODE

 ***WARNING: DEGREE OF FREEDOM 1 HAS BEEN ELIMINATED AT NODE 953 INSTANCE 
             CONCRETEPATH-1 BOUNDARY CONDITION TYPE ENCASTRE MAY NOT BE APPLIED 
             AT THIS NODE

 ***WARNING: DEGREE OF FREEDOM 2 HAS BEEN ELIMINATED AT NODE 953 INSTANCE 
             CONCRETEPATH-1 BOUNDARY CONDITION TYPE ENCASTRE MAY NOT BE APPLIED 
             AT THIS NODE

 ***WARNING: DEGREE OF FREEDOM 3 HAS BEEN ELIMINATED AT NODE 953 INSTANCE 
             CONCRETEPATH-1 BOUNDARY CONDITION TYPE ENCASTRE MAY NOT BE APPLIED 
             AT THIS NODE

 ***WARNING: DEGREE OF FREEDOM 1 HAS BEEN ELIMINATED AT NODE 954 INSTANCE 
             CONCRETEPATH-1 BOUNDARY CONDITION TYPE ENCASTRE MAY NOT BE APPLIED 
             AT THIS NODE

 ***WARNING: DEGREE OF FREEDOM 2 HAS BEEN ELIMINATED AT NODE 954 INSTANCE 
             CONCRETEPATH-1 BOUNDARY CONDITION TYPE ENCASTRE MAY NOT BE APPLIED 
             AT THIS NODE

 ***WARNING: DEGREE OF FREEDOM 3 HAS BEEN ELIMINATED AT NODE 954 INSTANCE 
             CONCRETEPATH-1 BOUNDARY CONDITION TYPE ENCASTRE MAY NOT BE APPLIED 
             AT THIS NODE

 ***WARNING: 8 nodes have dof on which incorrect boundary conditions may have 
             been specified. The nodes have been identified in node set 
             WarnNodeBCIncorrectDof.



                            P R O B L E M   S I Z E


          NUMBER OF ELEMENTS IS                                 22166
          NUMBER OF NODES IS                                    36556
          NUMBER OF NODES DEFINED BY THE USER                   36556
          TOTAL NUMBER OF VARIABLES IN THE MODEL               109668
          (DEGREES OF FREEDOM PLUS MAX NO. OF ANY LAGRANGE MULTIPLIER
           VARIABLES. INCLUDE *PRINT,SOLVE=YES TO GET THE ACTUAL NUMBER.)



                              END OF USER INPUT PROCESSING



     JOB TIME SUMMARY
       USER TIME (SEC)      =     0.90    
       SYSTEM TIME (SEC)    =      0.0    
       TOTAL CPU TIME (SEC) =     0.90    
       WALLCLOCK TIME (SEC) =            2
1

   Abaqus 2024                                  Date 05-Jun-2024   Time 17:48:29
   For use by UNIVERSITY OF SOUTH CAROLINA under license from Dassault Systemes or its subsidiary.

                                                                                               STEP    1  INCREMENT    1
                                                                                          TIME COMPLETED IN THIS STEP   0.00    


                        S T E P       1     C A L C U L A T I O N   O F   E I G E N V A L U E S

                                            F O R   N A T U R A L   F R E Q U E N C I E S



                                                                                          

     THE LANCZOS EIGENSOLVER IS USED FOR THIS ANALYSIS
     Abaqus WILL COMPUTE UNCOUPLED
      STRUCTURAL AND ACOUSTIC MODES
     NUMBER OF EIGENVALUES                     10
     HIGHEST FREQUENCY OF INTEREST                  1.00000E+18
     MAXIMUM NUMBER OF STEPS WITHIN RUN               35
     BLOCK SIZE FOR LANCZOS PROCEDURE                  7
     THE EIGENVECTORS ARE SCALED SO THAT 
      THE GENERALIZED MASS IN EACH VECTOR IS UNITY

     THIS IS A LINEAR PERTURBATION STEP.
     ALL LOADS ARE DEFINED AS CHANGE IN LOAD TO THE REFERENCE STATE



                    TOTAL MASS OF MODEL

                       5626.257    


                    LOCATION OF THE CENTER OF MASS OF THE MODEL

                     -0.1435500          1.4598051E-02       5.410200    


                    MOMENTS OF INERTIA ABOUT THE ORIGIN
                           I(XX)               I(YY)               I(ZZ)

                       219649.5           221242.0           1629.231    


                    PRODUCTS OF INERTIA ABOUT THE ORIGIN
                           I(XY)               I(XZ)               I(YZ)

                       14.74966           4369.564          -444.4001    


                    MOMENTS OF INERTIA ABOUT THE CENTER OF MASS
                           I(XX)               I(YY)               I(ZZ)

                       54966.27           56444.01           1512.094    


                    PRODUCTS OF INERTIA ABOUT THE CENTER OF MASS
                           I(XY)               I(XZ)               I(YZ)

                       2.959560          2.0088705E-02     -4.7503813E-02
  
                   M E M O R Y   E S T I M A T E
  
 PROCESS      FLOATING PT       MINIMUM MEMORY        MEMORY TO
              OPERATIONS           REQUIRED          MINIMIZE I/O
             PER ITERATION           (MB)               (MB)
  
     1          2.80E+10              151               1475
  
 NOTE:
      (1) SINCE ABAQUS DOES NOT PRE-ALLOCATE MEMORY AND ONLY ALLOCATES MEMORY AS NEEDED DURING THE ANALYSIS,
          THE MEMORY REQUIREMENT PRINTED HERE CAN ONLY BE VIEWED AS A GENERAL GUIDELINE BASED ON THE BEST
          KNOWLEDGE AVAILABLE AT THE BEGINNING OF A STEP BEFORE THE SOLUTION PROCESS HAS BEGUN.
      (2) THE ESTIMATE IS NORMALLY UPDATED AT THE BEGINNING OF EVERY STEP. IT IS THE MAXIMUM VALUE OF THE
          ESTIMATE FROM THE CURRENT STEP TO THE LAST STEP OF THE ANALYSIS, WITH UNSYMMETRIC SOLUTION TAKEN
          INTO ACCOUNT IF APPLICABLE. 
      (3) SINCE THE ESTIMATE IS BASED ON THE ACTIVE DEGREES OF FREEDOM IN THE FIRST ITERATION OF THE 
          CURRENT STEP, THE MEMORY ESTIMATE MIGHT BE SIGNIFICANTLY DIFFERENT THAN ACTUAL USAGE FOR 
          PROBLEMS WITH SUBSTANTIAL CHANGES IN ACTIVE DEGREES OF FREEDOM BETWEEN STEPS (OR EVEN WITHIN
          THE SAME STEP). EXAMPLES ARE: PROBLEMS WITH SIGNIFICANT CONTACT CHANGES, PROBLEMS WITH MODEL
          CHANGE, PROBLEMS WITH BOTH STATIC STEP AND STEADY STATE DYNAMIC PROCEDURES WHERE ACOUSTIC 
          ELEMENTS WILL ONLY BE ACTIVATED IN THE STEADY STATE DYNAMIC STEPS.
      (4) FOR MULTI-PROCESS EXECUTION, THE ESTIMATED VALUE OF FLOATING POINT OPERATIONS FOR EACH PROCESS
          IS BASED ON AN INITIAL SCHEDULING OF OPERATIONS AND MIGHT NOT REFLECT THE ACTUAL FLOATING 
          POINT OPERATIONS COMPLETED ON EACH PROCESS. OPERATIONS ARE DYNAMICALLY BALANCED DURING EXECUTION, 
          SO THE ACTUAL BALANCE OF OPERATIONS BETWEEN PROCESSES IS EXPECTED TO BE BETTER THAN THE ESTIMATE
          PRINTED HERE.
      (5) THE UPPER LIMIT OF MEMORY THAT CAN BE ALLOCATED BY ABAQUS WILL IN GENERAL DEPEND ON THE VALUE OF
          THE "MEMORY" PARAMETER AND THE AMOUNT OF PHYSICAL MEMORY AVAILABLE ON THE MACHINE. PLEASE SEE
          THE "ABAQUS ANALYSIS USER'S MANUAL" FOR MORE DETAILS. THE ACTUAL USAGE OF MEMORY AND OF DISK
          SPACE FOR SCRATCH DATA WILL DEPEND ON THIS UPPER LIMIT AS WELL AS THE MEMORY REQUIRED TO MINIMIZE
          I/O. IF THE MEMORY UPPER LIMIT IS GREATER THAN THE MEMORY REQUIRED TO MINIMIZE I/O, THEN THE ACTUAL
          MEMORY USAGE WILL BE CLOSE TO THE ESTIMATED "MEMORY TO MINIMIZE I/O" VALUE, AND THE SCRATCH DISK
          USAGE WILL BE CLOSE-TO-ZERO; OTHERWISE, THE ACTUAL MEMORY USED WILL BE CLOSE TO THE PREVIOUSLY
          MENTIONED MEMORY LIMIT, AND THE SCRATCH DISK USAGE WILL BE ROUGHLY PROPORTIONAL TO THE DIFFERENCE
          BETWEEN THE ESTIMATED "MEMORY TO MINIMIZE I/O" AND THE MEMORY UPPER LIMIT. HOWEVER ACCURATE
          ESTIMATE OF THE SCRATCH DISK SPACE IS NOT POSSIBLE.
      (6) USING "*RESTART, WRITE" CAN GENERATE A LARGE AMOUNT OF DATA WRITTEN IN THE WORK DIRECTORY.


                              E I G E N V A L U E    O U T P U T     

 MODE NO      EIGENVALUE              FREQUENCY         GENERALIZED MASS   COMPOSITE MODAL DAMPING            
                             (RAD/TIME)   (CYCLES/TIME)


       1       4901.8         70.013         11.143         1.0000         0.0000    
       2       7045.9         83.940         13.359         1.0000         0.0000    
       3       24076.         155.16         24.695         1.0000         0.0000    
       4       26249.         162.02         25.786         1.0000         0.0000    
       5       32598.         180.55         28.735         1.0000         0.0000    
       6       40418.         201.04         31.997         1.0000         0.0000    
       7       68997.         262.67         41.806         1.0000         0.0000    
       8      1.10256E+05     332.05         52.847         1.0000         0.0000    
       9      1.16194E+05     340.87         54.252         1.0000         0.0000    
      10      1.18070E+05     343.61         54.688         1.0000         0.0000    


          P A R T I C I P A T I O N   F A C T O R S

 MODE NO    X-COMPONENT    Y-COMPONENT    Z-COMPONENT    X-ROTATION     Y-ROTATION     Z-ROTATION 

       1      5.22764E-04   -2.09166E-02   -5.38708E-03    -156.81       -0.20014        1.21950E-03
       2      9.63517E-02    -64.933        2.93442E-04     351.33        0.52059         8.6274    
       3     -4.08010E-04   -3.02803E-03    3.78966E-04     2.6657        -2.2797       -2.16144E-02
       4      4.57394E-03    -2.7909        1.82015E-04     15.086        2.34773E-02     2.4406    
       5       1.0206        0.86196        1.24318E-04    -4.6758         5.5155         31.337    
       6      7.26993E-04    5.24487E-03   -1.22637E-02    -97.031       -0.21862       -2.19220E-03
       7      0.20685        -7.9999        2.14856E-03     43.256         1.1191        -1.1879    
       8      4.63713E-02   -4.69025E-03    1.21221E-02     5.1777       -0.48709        6.62419E-04
       9      2.00562E-02   -6.99676E-03   -1.03761E-02    -21.961       -0.56040       -2.51087E-04
      10      -63.269       -0.10132       -8.69684E-05    0.53666        -342.30         1.3721    


                    E F F E C T I V E   M A S S

 MODE NO    X-COMPONENT    Y-COMPONENT    Z-COMPONENT    X-ROTATION     Y-ROTATION     Z-ROTATION 

       1      2.73282E-07    4.37503E-04    2.90206E-05     24590.        4.00565E-02    1.48717E-06
       2      9.28365E-03     4216.2        8.61083E-08    1.23436E+05    0.27102         74.432    
       3      1.66472E-07    9.16898E-06    1.43615E-07     7.1059         5.1969        4.67184E-04
       4      2.09209E-05     7.7891        3.31295E-08     227.58        5.51181E-04     5.9567    
       5       1.0416        0.74297        1.54549E-08     21.863         30.421         982.03    
       6      5.28518E-07    2.75087E-05    1.50399E-04     9415.1        4.77947E-02    4.80576E-06
       7      4.27859E-02     63.999        4.61629E-06     1871.1         1.2524         1.4110    
       8      2.15030E-03    2.19985E-05    1.46945E-04     26.809        0.23726        4.38800E-07
       9      4.02252E-04    4.89546E-05    1.07663E-04     482.28        0.31405        6.30449E-08
      10       4003.0        1.02648E-02    7.56350E-09    0.28800        1.17169E+05     1.8827    

 TOTAL         4004.1         4288.8        4.38930E-04    1.60078E+05    1.17207E+05     1065.7    


          THE ANALYSIS HAS BEEN COMPLETED



                              ANALYSIS COMPLETE
                              WITH     30 WARNING MESSAGES ON THE DAT FILE



     JOB TIME SUMMARY
       USER TIME (SEC)      =      5.8    
       SYSTEM TIME (SEC)    =     0.50    
       TOTAL CPU TIME (SEC) =      6.3    
       WALLCLOCK TIME (SEC) =           10
