1

   Abaqus 2024                                  Date 05-Jun-2024   Time 17:48:29
   For use by UNIVERSITY OF SOUTH CAROLINA under license from Dassault Systemes or its subsidiary.

                                                                                 
                                                                                 
 STEP    1     INCREMENT     1     STEP TIME    0.00    


                        S T E P       1     C A L C U L A T I O N   O F   E I G E N V A L U E S

                                            F O R   N A T U R A L   F R E Q U E N C I E S



                                                                                          

     THE LANCZOS EIGENSOLVER IS USED FOR THIS ANALYSIS
     Abaqus WILL COMPUTE UNCOUPLED
      STRUCTURAL AND ACOUSTIC MODES
     NUMBER OF EIGENVALUES                     10
     HIGHEST FREQUENCY OF INTEREST                  1.00000E+18
     MAXIMUM NUMBER OF STEPS WITHIN RUN               35
     BLOCK SIZE FOR LANCZOS PROCEDURE                  7
     THE EIGENVECTORS ARE SCALED SO THAT 
      THE GENERALIZED MASS IN EACH VECTOR IS UNITY

     THIS IS A LINEAR PERTURBATION STEP.
     ALL LOADS ARE DEFINED AS CHANGE IN LOAD TO THE REFERENCE STATE

     EXTRAPOLATION WILL NOT BE USED

     CHARACTERISTIC ELEMENT LENGTH     2.179E-02

     DETAILS REGARDING ACTUAL SOLUTION WAVEFRONT REQUESTED

     DETAILED OUTPUT OF DIAGNOSTICS TO DATABASE REQUESTED

     PRINT OF INCREMENT NUMBER, TIME, ETC., TO THE MESSAGE FILE EVERY     1  INCREMENTS

     COLLECTING MODEL CONSTRAINT INFORMATION FOR OVERCONSTRAINT CHECKS

     COLLECTING STEP CONSTRAINT INFORMATION FOR OVERCONSTRAINT CHECKS

     CHECK POINT  START OF SOLVER     
 
 SMP LANCZOS SOLVER RUNNING ON 1 THREAD
  
 COMPUTER PRECISION USED BY ABAQUS       2.22045e-16
 CONVERGENCE CRITERION FOR LANCZOS RUN   1.81899e-12
  
 NUMBER OF EQUATIONS                                                          109140
 NUMBER OF UNRESTRAINED DEGREES OF FREEDOM                                    108492
 HEURISTIC SCALE FOR THE FIRST NONZERO EIGENVALUES (PROBLEM SCALE)   3.00230e+00
 INITIAL SHIFT VALUE                                                 0.00000e+00
  
 NUMBER OF CPUS USED BY DIRECT SOLVER     1
  
 NUMBER OF NEGATIVE EIGENVALUES     0
 NUMBER OF POSITIVE EIGENVALUES    109140
 NUMBER OF NEGATIVE EIGENVALUES NOT ASSOCIATED WITH LAGRANGE MULTIPLIERS     0
 NUMBER OF LAGRANGE MULTIPLIERS     0
  
 COMPUTATIONAL INTERVAL FOR THE INITIAL LANCZOS RUN
 
 EIGENVALUES NEEDED TO THE RIGHT OF SHIFT VALUE   10
 EIGENVALUES NEEDED TO THE LEFT OF SHIFT VALUE     0
 RIGHT BOUNDARY OF THE COMPUTATIONAL INTERVAL   3.95574e+37
 LEFT BOUNDARY OF THE COMPUTATIONAL INTERVAL   -3.95574e+37
  
 LANCZOS RUN TERMINATED. NUMBER OF STEPS:    9
 ALL THE EIGENVALUES REQUESTED ON THIS LANCZOS RUN ARE FOUND
  
 NUMBER OF ACCEPTED EIGENVALUES   13
  
 ACCEPTED EIGENVALUES
   4.90178e+03  7.04590e+03  2.40759e+04  2.62494e+04  3.25976e+04  4.04182e+04
   6.89969e+04  1.10256e+05  1.16194e+05  1.18070e+05  1.27075e+05  1.41928e+05
   1.67622e+05
  
 FACTORIZATION WITH NEW SHIFT VALUE IS REQUIRED
  
 TRUST INTERVALS AFTER LANCZOS RUN AND COMPRESSION
  
 NUMBER OF TRUST INTERVALS    1
  
 -------------------------------------------------------------------------------------
 | KEY | INSIDE |      INERTIAS     |  SENTINELS  |   OUTSIDE   |  NEED TO FIND      |
 |      ENDS OF INTERVAL     |     ENDS OF SENTINEL      |   COMPUTATIONAL INTERVAL  |
 -------------------------------------------------------------------------------------
 |  +  |      0 |        0        0 |     0     0 |     0     0 |      0    10       |
 | -3.95574e+37  0.00000e+00 | -3.95574e+37  0.00000e+00 | -3.95574e+37  3.95574e+37 |
 -------------------------------------------------------------------------------------
  
 DATA FOR CHOOSING SHIFT
  
 NUMBER OF EIGENVALUES NEEDED IN THE PRIMARY TRUST INTERVAL   10
  
 NUMBER OF MODES FORMING SENTINEL TO THE RIGHT   13
 SHIFT RIGHT         1.22573e+05
  
 NUMBER OF MODES FORMING SENTINEL TO THE LEFT     0
 SHIFT LEFT          0.00000e+00
  
 SHIFTING TO THE RIGHT DIRECTION
 NEW SHIFT           1.22573e+05
  
 NUMBER OF NEGATIVE EIGENVALUES    10
 NUMBER OF POSITIVE EIGENVALUES    109130
 NUMBER OF NEGATIVE EIGENVALUES NOT ASSOCIATED WITH LAGRANGE MULTIPLIERS    10
 NUMBER OF LAGRANGE MULTIPLIERS     0
  
 THE REQUIRED NUMBER OF EIGENVALUES IS FOUND
  
 FINAL TRUST INTERVAL
  
 -------------------------------------------------------------------------------------
 | KEY | INSIDE |      INERTIAS     |  SENTINELS  |   OUTSIDE   |  NEED TO FIND      |
 |      ENDS OF INTERVAL     |     ENDS OF SENTINEL      |   COMPUTATIONAL INTERVAL  |
 -------------------------------------------------------------------------------------
 |  +  |     10 |        0       10 |     0     0 |     0     0 |      0     0       |
 | -3.95574e+37  1.22573e+05 | -3.95574e+37  1.22573e+05 | -3.95574e+37  1.22573e+05 |
 -------------------------------------------------------------------------------------
  
 FIRST EIGENVALUE REQUESTED BY THE USER     1
  
 EIGENVALUES REQUESTED BY THE USER
   4.90178e+03  7.04590e+03  2.40759e+04  2.62494e+04  3.25976e+04  4.04182e+04
   6.89969e+04  1.10256e+05  1.16194e+05  1.18070e+05
  
 EIGENVALUE EXTRACTION USING THE LANCZOS EIGENSOLVER IS COMPLETE
 NUMBER OF LANCZOS RUNS       :   1
 NUMBER OF LANCZOS STEPS      :   9
 NUMBER OF FACTORIZATIONS     :   2
 NUMBER OF BACK SUBSTITUTIONS :  10

     CHECK POINT  END OF SOLVER       

       ELAPSED USER TIME (SEC)      =   4.4000    
       ELAPSED SYSTEM TIME (SEC)    =  0.30000    
       ELAPSED TOTAL CPU TIME (SEC) =   4.7000    
       ELAPSED WALLCLOCK TIME (SEC) =            9


          THE ANALYSIS HAS BEEN COMPLETED



     ANALYSIS SUMMARY:
     TOTAL OF          1  INCREMENTS
                       0  CUTBACKS IN AUTOMATIC INCREMENTATION
                       0  ITERATIONS INCLUDING CONTACT ITERATIONS IF PRESENT
                      12  PASSES THROUGH THE EQUATION SOLVER OF WHICH 
                       2  INVOLVE MATRIX DECOMPOSITION, INCLUDING
                       0  DECOMPOSITION(S) OF THE MASS MATRIX
                       1  REORDERING OF EQUATIONS TO MINIMIZE WAVEFRONT
                       0  ADDITIONAL RESIDUAL EVALUATIONS FOR LINE SEARCHES
                       0  ADDITIONAL OPERATOR EVALUATIONS FOR LINE SEARCHES
                      30  WARNING MESSAGES DURING USER INPUT PROCESSING
                       0  WARNING MESSAGES DURING ANALYSIS
                       0  ANALYSIS WARNINGS ARE NUMERICAL PROBLEM MESSAGES
                       0  ANALYSIS WARNINGS ARE NEGATIVE EIGENVALUE MESSAGES
                       0  ERROR MESSAGES



     JOB TIME SUMMARY
       USER TIME (SEC)      =      5.8    
       SYSTEM TIME (SEC)    =     0.50    
       TOTAL CPU TIME (SEC) =      6.3    
       WALLCLOCK TIME (SEC) =           10
       MEMORY PEAK (GB)     =            0
