*Heading
** Job name: Job-1 Model name: Model-1
** Generated by: Abaqus/CAE 2024
*Preprint, echo=NO, model=NO, history=NO, contact=NO
**
** PARTS
**
*Part, name=ConcretePath
*Node
      1, -0.949999988, 0.0500000007,           0.
      2, -0.949999988, -0.0420750007,           0.
      3, -0.924600005, 0.0500000007,           0.
      4, -0.924600005, 0.0754000023,           0.
      5,  0.637499988, 0.0754000023,           0.
      6,  0.637499988, 0.0500000007,           0.
      7,  0.662899971, 0.0500000007,           0.
      8,  0.662899971, -0.0420750007,           0.
      9,  0.377149999, 0.0754000023,           0.
     10,  0.116800003, 0.0754000023,           0.
     11, -0.143549994, 0.0754000023,           0.
     12, -0.403899997, 0.0754000023,           0.
     13, -0.664250016, 0.0754000023,           0.
     14, -0.681183338, -0.0420750007,           0.
     15, -0.412366658, -0.0420750007,           0.
     16, -0.143549994, -0.0420750007,           0.
     17,  0.125266671, -0.0420750007,           0.
     18,  0.394083321, -0.0420750007,           0.
     19, -0.889342487, 0.00259745633,           0.
     20,  0.580923021, 0.00966043305,           0.
** ... 948 like lines cut
*Element, type=C3D8R
  1,   2,  19,   3,   1,  24,  41,  25,  23
  2,  19,   2,  14,  21,  41,  24,  36,  43
  3,   7,   6,  20,   8,  29,  28,  42,  30
  4,  17,  10,  11,  16,  39,  32,  33,  38
  5,  22,   3,  19,  21,  44,  25,  41,  43
  6,  20,   6,   5,   9,  42,  28,  27,  31
  7,  18,   9,  10,  17,  40,  31,  32,  39
  8,  15,  16,  11,  12,  37,  38,  33,  34
  9,  12,  13,  22,  15,  34,  35,  44,  37
 10,  15,  22,  21,  14,  37,  44,  43,  36
 11,   9,  18,   8,  20,  31,  40,  30,  42
 12,   3,  22,  13,   4,  25,  44,  35,  26
 13,  24,  41,  25,  23,  46,  63,  47,  45
 14,  41,  24,  36,  43,  63,  46,  58,  65
 15,  29,  28,  42,  30,  51,  50,  64,  52
 16,  39,  32,  33,  38,  61,  54,  55,  60
 17,  44,  25,  41,  43,  66,  47,  63,  65
 18,  42,  28,  27,  31,  64,  50,  49,  53
 19,  40,  31,  32,  39,  62,  53,  54,  61
 20,  37,  38,  33,  34,  59,  60,  55,  56
** ... 496 like lines cut
*Nset, nset=Set-1, generate
   1,  968,    1
*Elset, elset=Set-1, generate
   1,  516,    1
** Section: Section-1
*Solid Section, elset=Set-1, material=Concrete
,
*End Part
**  
*Part, name=SteelBeamSpan
*Node
      1, -0.115324996, 0.00146080845,           0.
      2, -0.115324996, 0.00781080825,           0.
      3, -0.0581750013, 0.00781080825,           0.
      4, -0.0581750013,  0.153860807,           0.
      5, -0.0835750028,  0.153860807,           0.
      6, -0.0835750028,  0.179260805,           0.
      7, -0.0264250003,  0.179260805,           0.
      8, -0.0264250003,  0.153860807,           0.
      9, -0.0518250018,  0.153860807,           0.
     10, -0.0518250018, 0.00781080825,           0.
     11, 0.0053249998, 0.00781080825,           0.
     12, 0.0053249998, 0.00146080845,           0.
     13, -0.115324996, 0.00463580852,           0.
     14, -0.0867500007, 0.00781080825,           0.
     15, -0.0581750013, 0.0321524739,           0.
     16, -0.0581750013, 0.0564941429,           0.
     17, -0.0581750013, 0.0808358118,           0.
     18, -0.0581750013,  0.105177477,           0.
     19, -0.0581750013,  0.129519135,           0.
     20, -0.0549999997,  0.179260805,           0.
** ... 17774 like lines cut
*Element, type=C3D8R
    1,     1,    27,    31,    13,    42,    68,    72,    54
    2,    32,    33,    28,    29,    73,    74,    69,    70
    3,    12,    11,    26,    30,    53,    52,    67,    71
    4,    26,    32,    29,    30,    67,    73,    70,    71
    5,    41,    15,     3,    25,    82,    56,    44,    66
    6,    25,    24,    39,    41,    66,    65,    80,    82
    7,     5,     4,    20,     6,    46,    45,    61,    47
    8,    40,     9,    20,     4,    81,    50,    61,    45
    9,    20,     9,     8,     7,    61,    50,    49,    48
   10,    14,     2,    13,    31,    55,    43,    54,    72
   11,     3,    14,    35,    34,    44,    55,    76,    75
   12,    38,    36,    18,    17,    79,    77,    59,    58
   13,    37,    36,    22,    21,    78,    77,    63,    62
   14,    18,    36,    37,    19,    59,    77,    78,    60
   15,    40,     4,    19,    37,    81,    45,    60,    78
   16,    24,    23,    38,    39,    65,    64,    79,    80
   17,    34,    10,    25,     3,    75,    51,    66,    44
   18,    33,    32,    26,    10,    74,    73,    67,    51
   19,    10,    34,    28,    33,    51,    75,    69,    74
   20,    35,    14,    31,    27,    76,    55,    72,    68
** ... 10805 like lines cut
*Nset, nset=Set-1, generate
     1,  17794,      1
*Elset, elset=Set-1, generate
     1,  10825,      1
** Section: Steel
*Solid Section, elset=Set-1, material=Steel
,
*End Part
**  
**
** ASSEMBLY
**
*Assembly, name=Assembly
**  
*Instance, name=ConcretePath-1, part=ConcretePath
*End Instance
**  
*Instance, name=SteelBeamSpan-1, part=SteelBeamSpan
    0.721075,    -0.103861,           0.
*End Instance
**  
*Instance, name=SteelBeamSpan-2, part=SteelBeamSpan
   -0.898175,    -0.103861,           0.
*End Instance
**  
*Nset, nset=Set-1, instance=ConcretePath-1
   1,   2,   3,   4,   5,   6,   7,   8,   9,  10,  11,  12,  13,  14,  15,  16
  17,  18,  19,  20,  21,  22, 947, 948, 949, 950, 951, 952, 953, 954, 955, 956
 957, 958, 959, 960, 961, 962, 963, 964, 965, 966, 967, 968
*Nset, nset=Set-1, instance=SteelBeamSpan-1
     1,     2,     3,     4,     5,     6,     7,     8,     9,    10,    11,    12,    13,    14,    15,    16
    17,    18,    19,    20,    21,    22,    23,    24,    25,    26,    27,    28,    29,    30,    31,    32
    33,    34,    35,    36,    37,    38,    39,    40,    41, 17754, 17755, 17756, 17757, 17758, 17759, 17760
 17761, 17762, 17763, 17764, 17765, 17766, 17767, 17768, 17769, 17770, 17771, 17772, 17773, 17774, 17775, 17776
 17777, 17778, 17779, 17780, 17781, 17782, 17783, 17784, 17785, 17786, 17787, 17788, 17789, 17790, 17791, 17792
 17793, 17794
*Nset, nset=Set-1, instance=SteelBeamSpan-2
     1,     2,     3,     4,     5,     6,     7,     8,     9,    10,    11,    12,    13,    14,    15,    16
    17,    18,    19,    20,    21,    22,    23,    24,    25,    26,    27,    28,    29,    30,    31,    32
    33,    34,    35,    36,    37,    38,    39,    40,    41, 17754, 17755, 17756, 17757, 17758, 17759, 17760
 17761, 17762, 17763, 17764, 17765, 17766, 17767, 17768, 17769, 17770, 17771, 17772, 17773, 17774, 17775, 17776
 17777, 17778, 17779, 17780, 17781, 17782, 17783, 17784, 17785, 17786, 17787, 17788, 17789, 17790, 17791, 17792
 17793, 17794
*Elset, elset=Set-1, instance=ConcretePath-1
   1,   2,   3,   4,   5,   6,   7,   8,   9,  10,  11,  12, 505, 506, 507, 508
 509, 510, 511, 512, 513, 514, 515, 516
*Elset, elset=Set-1, instance=SteelBeamSpan-1
     1,     2,     3,     4,     5,     6,     7,     8,     9,    10,    11,    12,    13,    14,    15,    16
    17,    18,    19,    20,    21,    22,    23,    24,    25, 10801, 10802, 10803, 10804, 10805, 10806, 10807
 10808, 10809, 10810, 10811, 10812, 10813, 10814, 10815, 10816, 10817, 10818, 10819, 10820, 10821, 10822, 10823
 10824, 10825
*Elset, elset=Set-1, instance=SteelBeamSpan-2
     1,     2,     3,     4,     5,     6,     7,     8,     9,    10,    11,    12,    13,    14,    15,    16
    17,    18,    19,    20,    21,    22,    23,    24,    25, 10801, 10802, 10803, 10804, 10805, 10806, 10807
 10808, 10809, 10810, 10811, 10812, 10813, 10814, 10815, 10816, 10817, 10818, 10819, 10820, 10821, 10822, 10823
 10824, 10825
*Nset, nset=Set-2, instance=SteelBeamSpan-1
 8816, 8827, 8842, 8843, 8844, 8845, 8857, 8868, 8883, 8884, 8885, 8886, 8898, 8909, 8924, 8925
 8926, 8927, 8939, 8950, 8965, 8966, 8967, 8968
*Nset, nset=Set-2, instance=SteelBeamSpan-2
 8816, 8827, 8842, 8843, 8844, 8845, 8857, 8868, 8883, 8884, 8885, 8886, 8898, 8909, 8924, 8925
 8926, 8927, 8939, 8950, 8965, 8966, 8967, 8968
*Elset, elset=Set-2, instance=SteelBeamSpan-1
 5376, 5377, 5378, 5379, 5396, 5401, 5402, 5403, 5404, 5421, 5426, 5427, 5428, 5429, 5446
*Elset, elset=Set-2, instance=SteelBeamSpan-2
 5376, 5377, 5378, 5379, 5396, 5401, 5402, 5403, 5404, 5421, 5426, 5427, 5428, 5429, 5446
*Elset, elset=_m_Surf-3_S3, internal, instance=SteelBeamSpan-2
     6,    16,    31,    41,    56,    66,    81,    91,   106,   116,   131,   141,   156,   166,   181,   191
   206,   216,   231,   241,   256,   266,   281,   291,   306,   316,   331,   341,   356,   366,   381,   391
   406,   416,   431,   441,   456,   466,   481,   491,   506,   516,   531,   541,   556,   566,   581,   591
   606,   616,   631,   641,   656,   666,   681,   691,   706,   716,   731,   741,   756,   766,   781,   791
   806,   816,   831,   841,   856,   866,   881,   891,   906,   916,   931,   941,   956,   966,   981,   991
  1006,  1016,  1031,  1041,  1056,  1066,  1081,  1091,  1106,  1116,  1131,  1141,  1156,  1166,  1181,  1191
  1206,  1216,  1231,  1241,  1256,  1266,  1281,  1291,  1306,  1316,  1331,  1341,  1356,  1366,  1381,  1391
  1406,  1416,  1431,  1441,  1456,  1466,  1481,  1491,  1506,  1516,  1531,  1541,  1556,  1566,  1581,  1591
  1606,  1616,  1631,  1641,  1656,  1666,  1681,  1691,  1706,  1716,  1731,  1741,  1756,  1766,  1781,  1791
  1806,  1816,  1831,  1841,  1856,  1866,  1881,  1891,  1906,  1916,  1931,  1941,  1956,  1966,  1981,  1991
  2006,  2016,  2031,  2041,  2056,  2066,  2081,  2091,  2106,  2116,  2131,  2141,  2156,  2166,  2181,  2191
  2206,  2216,  2231,  2241,  2256,  2266,  2281,  2291,  2306,  2316,  2331,  2341,  2356,  2366,  2381,  2391
  2406,  2416,  2431,  2441,  2456,  2466,  2481,  2491,  2506,  2516,  2531,  2541,  2556,  2566,  2581,  2591
  2606,  2616,  2631,  2641,  2656,  2666,  2681,  2691,  2706,  2716,  2731,  2741,  2756,  2766,  2781,  2791
  2806,  2816,  2831,  2841,  2856,  2866,  2881,  2891,  2906,  2916,  2931,  2941,  2956,  2966,  2981,  2991
  3006,  3016,  3031,  3041,  3056,  3066,  3081,  3091,  3106,  3116,  3131,  3141,  3156,  3166,  3181,  3191
  3206,  3216,  3231,  3241,  3256,  3266,  3281,  3291,  3306,  3316,  3331,  3341,  3356,  3366,  3381,  3391
  3406,  3416,  3431,  3441,  3456,  3466,  3481,  3491,  3506,  3516,  3531,  3541,  3556,  3566,  3581,  3591
  3606,  3616,  3631,  3641,  3656,  3666,  3681,  3691,  3706,  3716,  3731,  3741,  3756,  3766,  3781,  3791
  3806,  3816,  3831,  3841,  3856,  3866,  3881,  3891,  3906,  3916,  3931,  3941,  3956,  3966,  3981,  3991
** ... 35 like lines cut
*Elset, elset=_m_Surf-3_S5, internal, instance=SteelBeamSpan-2, generate
    13,  10813,     25
*Elset, elset=_m_Surf-3_S4, internal, instance=SteelBeamSpan-2
    17,    22,    42,    47,    67,    72,    92,    97,   117,   122,   142,   147,   167,   172,   192,   197
   217,   222,   242,   247,   267,   272,   292,   297,   317,   322,   342,   347,   367,   372,   392,   397
   417,   422,   442,   447,   467,   472,   492,   497,   517,   522,   542,   547,   567,   572,   592,   597
   617,   622,   642,   647,   667,   672,   692,   697,   717,   722,   742,   747,   767,   772,   792,   797
   817,   822,   842,   847,   867,   872,   892,   897,   917,   922,   942,   947,   967,   972,   992,   997
  1017,  1022,  1042,  1047,  1067,  1072,  1092,  1097,  1117,  1122,  1142,  1147,  1167,  1172,  1192,  1197
  1217,  1222,  1242,  1247,  1267,  1272,  1292,  1297,  1317,  1322,  1342,  1347,  1367,  1372,  1392,  1397
  1417,  1422,  1442,  1447,  1467,  1472,  1492,  1497,  1517,  1522,  1542,  1547,  1567,  1572,  1592,  1597
  1617,  1622,  1642,  1647,  1667,  1672,  1692,  1697,  1717,  1722,  1742,  1747,  1767,  1772,  1792,  1797
  1817,  1822,  1842,  1847,  1867,  1872,  1892,  1897,  1917,  1922,  1942,  1947,  1967,  1972,  1992,  1997
  2017,  2022,  2042,  2047,  2067,  2072,  2092,  2097,  2117,  2122,  2142,  2147,  2167,  2172,  2192,  2197
  2217,  2222,  2242,  2247,  2267,  2272,  2292,  2297,  2317,  2322,  2342,  2347,  2367,  2372,  2392,  2397
  2417,  2422,  2442,  2447,  2467,  2472,  2492,  2497,  2517,  2522,  2542,  2547,  2567,  2572,  2592,  2597
  2617,  2622,  2642,  2647,  2667,  2672,  2692,  2697,  2717,  2722,  2742,  2747,  2767,  2772,  2792,  2797
  2817,  2822,  2842,  2847,  2867,  2872,  2892,  2897,  2917,  2922,  2942,  2947,  2967,  2972,  2992,  2997
  3017,  3022,  3042,  3047,  3067,  3072,  3092,  3097,  3117,  3122,  3142,  3147,  3167,  3172,  3192,  3197
  3217,  3222,  3242,  3247,  3267,  3272,  3292,  3297,  3317,  3322,  3342,  3347,  3367,  3372,  3392,  3397
  3417,  3422,  3442,  3447,  3467,  3472,  3492,  3497,  3517,  3522,  3542,  3547,  3567,  3572,  3592,  3597
  3617,  3622,  3642,  3647,  3667,  3672,  3692,  3697,  3717,  3722,  3742,  3747,  3767,  3772,  3792,  3797
  3817,  3822,  3842,  3847,  3867,  3872,  3892,  3897,  3917,  3922,  3942,  3947,  3967,  3972,  3992,  3997
** ... 35 like lines cut
*Elset, elset=_m_Surf-3_S6, internal, instance=SteelBeamSpan-2, generate
    23,  10823,     25
*Surface, type=ELEMENT, name=m_Surf-3
_m_Surf-3_S3, S3
_m_Surf-3_S5, S5
_m_Surf-3_S4, S4
_m_Surf-3_S6, S6
*Elset, elset=_m_Surf-4_S4, internal, instance=SteelBeamSpan-1
     5,    15,    24,    30,    40,    49,    55,    65,    74,    80,    90,    99,   105,   115,   124,   130
   140,   149,   155,   165,   174,   180,   190,   199,   205,   215,   224,   230,   240,   249,   255,   265
   274,   280,   290,   299,   305,   315,   324,   330,   340,   349,   355,   365,   374,   380,   390,   399
   405,   415,   424,   430,   440,   449,   455,   465,   474,   480,   490,   499,   505,   515,   524,   530
   540,   549,   555,   565,   574,   580,   590,   599,   605,   615,   624,   630,   640,   649,   655,   665
   674,   680,   690,   699,   705,   715,   724,   730,   740,   749,   755,   765,   774,   780,   790,   799
   805,   815,   824,   830,   840,   849,   855,   865,   874,   880,   890,   899,   905,   915,   924,   930
   940,   949,   955,   965,   974,   980,   990,   999,  1005,  1015,  1024,  1030,  1040,  1049,  1055,  1065
  1074,  1080,  1090,  1099,  1105,  1115,  1124,  1130,  1140,  1149,  1155,  1165,  1174,  1180,  1190,  1199
  1205,  1215,  1224,  1230,  1240,  1249,  1255,  1265,  1274,  1280,  1290,  1299,  1305,  1315,  1324,  1330
  1340,  1349,  1355,  1365,  1374,  1380,  1390,  1399,  1405,  1415,  1424,  1430,  1440,  1449,  1455,  1465
  1474,  1480,  1490,  1499,  1505,  1515,  1524,  1530,  1540,  1549,  1555,  1565,  1574,  1580,  1590,  1599
  1605,  1615,  1624,  1630,  1640,  1649,  1655,  1665,  1674,  1680,  1690,  1699,  1705,  1715,  1724,  1730
  1740,  1749,  1755,  1765,  1774,  1780,  1790,  1799,  1805,  1815,  1824,  1830,  1840,  1849,  1855,  1865
  1874,  1880,  1890,  1899,  1905,  1915,  1924,  1930,  1940,  1949,  1955,  1965,  1974,  1980,  1990,  1999
  2005,  2015,  2024,  2030,  2040,  2049,  2055,  2065,  2074,  2080,  2090,  2099,  2105,  2115,  2124,  2130
  2140,  2149,  2155,  2165,  2174,  2180,  2190,  2199,  2205,  2215,  2224,  2230,  2240,  2249,  2255,  2265
  2274,  2280,  2290,  2299,  2305,  2315,  2324,  2330,  2340,  2349,  2355,  2365,  2374,  2380,  2390,  2399
  2405,  2415,  2424,  2430,  2440,  2449,  2455,  2465,  2474,  2480,  2490,  2499,  2505,  2515,  2524,  2530
  2540,  2549,  2555,  2565,  2574,  2580,  2590,  2599,  2605,  2615,  2624,  2630,  2640,  2649,  2655,  2665
** ... 62 like lines cut
*Elset, elset=_m_Surf-4_S5, internal, instance=SteelBeamSpan-1, generate
    12,  10812,     25
*Elset, elset=_m_Surf-4_S6, internal, instance=SteelBeamSpan-1
    14,    25,    39,    50,    64,    75,    89,   100,   114,   125,   139,   150,   164,   175,   189,   200
   214,   225,   239,   250,   264,   275,   289,   300,   314,   325,   339,   350,   364,   375,   389,   400
   414,   425,   439,   450,   464,   475,   489,   500,   514,   525,   539,   550,   564,   575,   589,   600
   614,   625,   639,   650,   664,   675,   689,   700,   714,   725,   739,   750,   764,   775,   789,   800
   814,   825,   839,   850,   864,   875,   889,   900,   914,   925,   939,   950,   964,   975,   989,  1000
  1014,  1025,  1039,  1050,  1064,  1075,  1089,  1100,  1114,  1125,  1139,  1150,  1164,  1175,  1189,  1200
  1214,  1225,  1239,  1250,  1264,  1275,  1289,  1300,  1314,  1325,  1339,  1350,  1364,  1375,  1389,  1400
  1414,  1425,  1439,  1450,  1464,  1475,  1489,  1500,  1514,  1525,  1539,  1550,  1564,  1575,  1589,  1600
  1614,  1625,  1639,  1650,  1664,  1675,  1689,  1700,  1714,  1725,  1739,  1750,  1764,  1775,  1789,  1800
  1814,  1825,  1839,  1850,  1864,  1875,  1889,  1900,  1914,  1925,  1939,  1950,  1964,  1975,  1989,  2000
  2014,  2025,  2039,  2050,  2064,  2075,  2089,  2100,  2114,  2125,  2139,  2150,  2164,  2175,  2189,  2200
  2214,  2225,  2239,  2250,  2264,  2275,  2289,  2300,  2314,  2325,  2339,  2350,  2364,  2375,  2389,  2400
  2414,  2425,  2439,  2450,  2464,  2475,  2489,  2500,  2514,  2525,  2539,  2550,  2564,  2575,  2589,  2600
  2614,  2625,  2639,  2650,  2664,  2675,  2689,  2700,  2714,  2725,  2739,  2750,  2764,  2775,  2789,  2800
  2814,  2825,  2839,  2850,  2864,  2875,  2889,  2900,  2914,  2925,  2939,  2950,  2964,  2975,  2989,  3000
  3014,  3025,  3039,  3050,  3064,  3075,  3089,  3100,  3114,  3125,  3139,  3150,  3164,  3175,  3189,  3200
  3214,  3225,  3239,  3250,  3264,  3275,  3289,  3300,  3314,  3325,  3339,  3350,  3364,  3375,  3389,  3400
  3414,  3425,  3439,  3450,  3464,  3475,  3489,  3500,  3514,  3525,  3539,  3550,  3564,  3575,  3589,  3600
  3614,  3625,  3639,  3650,  3664,  3675,  3689,  3700,  3714,  3725,  3739,  3750,  3764,  3775,  3789,  3800
  3814,  3825,  3839,  3850,  3864,  3875,  3889,  3900,  3914,  3925,  3939,  3950,  3964,  3975,  3989,  4000
** ... 35 like lines cut
*Surface, type=ELEMENT, name=m_Surf-4
_m_Surf-4_S4, S4
_m_Surf-4_S5, S5
_m_Surf-4_S6, S6
*Elset, elset=_s_Surf-3_S6, internal, instance=ConcretePath-1, generate
   1,  505,   12
*Surface, type=ELEMENT, name=s_Surf-3
_s_Surf-3_S6, S6
*Elset, elset=_s_Surf-4_S6, internal, instance=ConcretePath-1, generate
   3,  507,   12
*Surface, type=ELEMENT, name=s_Surf-4
_s_Surf-4_S6, S6
** Constraint: Constraint-2
*Tie, name=Constraint-2, adjust=yes
s_Surf-3, m_Surf-3
** Constraint: Constraint-3
*Tie, name=Constraint-3, adjust=yes
s_Surf-4, m_Surf-4
*End Assembly
** 
** MATERIALS
** 
*Material, name=Concrete
*Density
2500.,
*Elastic
 3.7e+10, 0.18
*Material, name=Steel
*Density
7870.,
*Elastic
 2.1e+11, 0.29
** 
** BOUNDARY CONDITIONS
** 
** Name: CrossBeam Type: Symmetry/Antisymmetry/Encastre
*Boundary
Set-2, YSYMM
** Name: Ends Type: Symmetry/Antisymmetry/Encastre
*Boundary
Set-1, ENCASTRE
** ----------------------------------------------------------------
** 
** STEP: Freq
** 
*Step, name=Freq, nlgeom=NO, perturbation
*Frequency, eigensolver=Lanczos, sim=NO, acoustic coupling=on, normalization=mass
10, , , , , 
** 
** OUTPUT REQUESTS
** 
*Restart, write, frequency=0
** 
** FIELD OUTPUT: F-Output-1
** 
*Output, field, variable=PRESELECT
** 
** HISTORY OUTPUT: H-Output-1
** 
*Output, history, variable=PRESELECT
*End Step
